WIDTH=32;
DEPTH=2284;

ADDRESS_RADIX=HEX;
DATA_RADIX=HEX;

CONTENT BEGIN
  00 : 0F008F97;
  01 : 000F8F93;
  02 : 0F008117;
  03 : FF810113;
  04 : 00C000EF;
  05 : 00050F93;
  06 : 0000006F;
  07 : FE010113;
  08 : 00112E23;
  09 : 00812C23;
  0A : 02010413;
  0B : FE042623;
  0C : 710007B7;
  0D : FEF42423;
  0E : FE042223;
  0F : FE842783;
  10 : 0007A783;
  11 : FEF42223;
  12 : 00400593;
  13 : 00500513;
  14 : 05C000EF;
  15 : FEA42623;
  16 : 001000EF;
  17 : 00000613;
  18 : 0001C7B7;
  19 : 20078593;
  1A : FFF50537;
  1B : 11C000EF;
  1C : 710017B7;
  1D : 28878593;
  1E : FFF50537;
  1F : 280000EF;
  20 : FE442603;
  21 : 710017B7;
  22 : 29878593;
  23 : FFF50537;
  24 : 5C0000EF;
  25 : 00000793;
  26 : 00078513;
  27 : 01C12083;
  28 : 01812403;
  29 : 02010113;
  2A : 00008067;
  2B : FE010113;
  2C : 00812E23;
  2D : 02010413;
  2E : FEA42623;
  2F : FEB42423;
  30 : FEC42703;
  31 : FE842783;
  32 : 00F707B3;
  33 : 00078513;
  34 : 01C12403;
  35 : 02010113;
  36 : 00008067;
  37 : FE010113;
  38 : 00812E23;
  39 : 02010413;
  3A : FEA42623;
  3B : FEC42783;
  3C : 00178713;
  3D : 710027B7;
  3E : 2AC78793;
  3F : 00F707B3;
  40 : 0007C783;
  41 : 00078513;
  42 : 01C12403;
  43 : 02010113;
  44 : 00008067;
  45 : FE010113;
  46 : 00812E23;
  47 : 02010413;
  48 : FEA42623;
  49 : FEC42703;
  4A : FFF507B7;
  4B : 02F71063;
  4C : FFFE07B7;
  4D : 0087A703;
  4E : 000207B7;
  4F : 00F777B3;
  50 : 00078663;
  51 : 00100793;
  52 : 0300006F;
  53 : FEC42703;
  54 : FFF607B7;
  55 : 02F71063;
  56 : FFFE07B7;
  57 : 0087A703;
  58 : 020007B7;
  59 : 00F777B3;
  5A : 00078663;
  5B : 00100793;
  5C : 0080006F;
  5D : 00000793;
  5E : 00078513;
  5F : 01C12403;
  60 : 02010113;
  61 : 00008067;
  62 : FD010113;
  63 : 02112623;
  64 : 02812423;
  65 : 03010413;
  66 : FCA42E23;
  67 : FCB42C23;
  68 : FCC42A23;
  69 : FE042623;
  6A : FE042423;
  6B : FDC42783;
  6C : 0007A023;
  6D : FFFE07B7;
  6E : 0007A783;
  6F : FEF42223;
  70 : FD842783;
  71 : 00179793;
  72 : 00078593;
  73 : FE442503;
  74 : 7F1000EF;
  75 : 00050793;
  76 : FEF42423;
  77 : 0440006F;
  78 : FEC42703;
  79 : 00200793;
  7A : 00F70863;
  7B : FEC42703;
  7C : 00400793;
  7D : 00F71A63;
  7E : FE842783;
  7F : 0037D793;
  80 : FEF42423;
  81 : 0100006F;
  82 : FE842783;
  83 : 0017D793;
  84 : FEF42423;
  85 : FEC42783;
  86 : 00178793;
  87 : FEF42623;
  88 : FE842703;
  89 : 3FE00793;
  8A : FAE7ECE3;
  8B : FE042023;
  8C : FE042783;
  8D : 0017E793;
  8E : FEF42023;
  8F : FEC42783;
  90 : 00379793;
  91 : 0187F793;
  92 : FE042703;
  93 : 00F767B3;
  94 : FEF42023;
  95 : FE842783;
  96 : FFF78793;
  97 : 00679713;
  98 : 000107B7;
  99 : FFF78793;
  9A : 00F777B3;
  9B : FE042703;
  9C : 00F767B3;
  9D : FEF42023;
  9E : FD442703;
  9F : 07C007B7;
  A0 : 00F777B3;
  A1 : FE042703;
  A2 : 00F767B3;
  A3 : FEF42023;
  A4 : FDC42783;
  A5 : FE042703;
  A6 : 00E7A023;
  A7 : 00000013;
  A8 : 02C12083;
  A9 : 02812403;
  AA : 03010113;
  AB : 00008067;
  AC : FE010113;
  AD : 00812E23;
  AE : 02010413;
  AF : FEA42623;
  B0 : 00058793;
  B1 : FEF405A3;
  B2 : 00000013;
  B3 : FEC42783;
  B4 : 0007A703;
  B5 : 002007B7;
  B6 : 00F777B3;
  B7 : FE0798E3;
  B8 : FEB44703;
  B9 : FEC42783;
  BA : 00E7A223;
  BB : 00000013;
  BC : 01C12403;
  BD : 02010113;
  BE : 00008067;
  BF : FD010113;
  C0 : 02112623;
  C1 : 02812423;
  C2 : 03010413;
  C3 : FCA42E23;
  C4 : FCB42C23;
  C5 : FE0407A3;
  C6 : 02C0006F;
  C7 : FEF44703;
  C8 : 00A00793;
  C9 : 00F71863;
  CA : 00D00593;
  CB : FDC42503;
  CC : F81FF0EF;
  CD : FEF44783;
  CE : 00078593;
  CF : FDC42503;
  D0 : F71FF0EF;
  D1 : FD842783;
  D2 : 00178713;
  D3 : FCE42C23;
  D4 : 0007C783;
  D5 : FEF407A3;
  D6 : FEF44783;
  D7 : FC0790E3;
  D8 : 00000013;
  D9 : 00000013;
  DA : 02C12083;
  DB : 02812403;
  DC : 03010113;
  DD : 00008067;
  DE : FB010113;
  DF : 04112623;
  E0 : 04812423;
  E1 : 05010413;
  E2 : FAA42E23;
  E3 : FAB42C23;
  E4 : FAC42A23;
  E5 : FE0403A3;
  E6 : FE042623;
  E7 : FE042423;
  E8 : FE042423;
  E9 : 0200006F;
  EA : FE842783;
  EB : FF078793;
  EC : 008787B3;
  ED : FC078823;
  EE : FE842783;
  EF : 00178793;
  F0 : FEF42423;
  F1 : FE842703;
  F2 : 02300793;
  F3 : FCE7FEE3;
  F4 : 24C0006F;
  F5 : FE744703;
  F6 : 02500793;
  F7 : 20F71C63;
  F8 : FB842783;
  F9 : 00178713;
  FA : FAE42C23;
  FB : 0007C783;
  FC : FEF40323;
  FD : FE644783;
  FE : 00078513;
  FF : CE1FF0EF;
  100 : 00050793;
  101 : 0037F713;
  102 : 00100793;
  103 : 00F71863;
  104 : FE644783;
  105 : 02078793;
  106 : 0080006F;
  107 : FE644783;
  108 : FEF403A3;
  109 : FE744783;
  10A : 02500713;
  10B : 18E78863;
  10C : 02500713;
  10D : 18E7CE63;
  10E : 07800713;
  10F : 18F74A63;
  110 : 06300713;
  111 : 18E7C663;
  112 : F9D78793;
  113 : 01500713;
  114 : 18F76063;
  115 : 00279713;
  116 : 710017B7;
  117 : 2A478793;
  118 : 00F707B3;
  119 : 0007A783;
  11A : 00078067;
  11B : FB442783;
  11C : 00478713;
  11D : FAE42A23;
  11E : 0007A783;
  11F : 00078593;
  120 : FBC42503;
  121 : E79FF0EF;
  122 : 1940006F;
  123 : FB442783;
  124 : 00478713;
  125 : FAE42A23;
  126 : 0007A783;
  127 : 0FF7F793;
  128 : 00078593;
  129 : FBC42503;
  12A : E09FF0EF;
  12B : 1700006F;
  12C : FB442783;
  12D : 00478713;
  12E : FAE42A23;
  12F : 0007A783;
  130 : FEF42623;
  131 : FEC42783;
  132 : 0007DE63;
  133 : FEC42783;
  134 : 40F007B3;
  135 : FEF42623;
  136 : 02D00593;
  137 : FBC42503;
  138 : DD1FF0EF;
  139 : FEC42703;
  13A : FC040793;
  13B : 00A00613;
  13C : 00070593;
  13D : 00078513;
  13E : 1C4000EF;
  13F : FC040793;
  140 : 00078593;
  141 : FBC42503;
  142 : DF5FF0EF;
  143 : 1100006F;
  144 : FB442783;
  145 : 00478713;
  146 : FAE42A23;
  147 : 0007A703;
  148 : FC040793;
  149 : 00A00613;
  14A : 00070593;
  14B : 00078513;
  14C : 18C000EF;
  14D : FC040793;
  14E : 00078593;
  14F : FBC42503;
  150 : DBDFF0EF;
  151 : 0D80006F;
  152 : FB442783;
  153 : 00478713;
  154 : FAE42A23;
  155 : 0007A703;
  156 : FC040793;
  157 : 01000613;
  158 : 00070593;
  159 : 00078513;
  15A : 154000EF;
  15B : FC040793;
  15C : 00078513;
  15D : 4F9000EF;
  15E : 00050713;
  15F : 00800793;
  160 : 40E787B3;
  161 : FEF42423;
  162 : 0100006F;
  163 : 03000593;
  164 : FBC42503;
  165 : D1DFF0EF;
  166 : FE842783;
  167 : FFF78713;
  168 : FEE42423;
  169 : FE0794E3;
  16A : FC040793;
  16B : 00078593;
  16C : FBC42503;
  16D : D49FF0EF;
  16E : 0640006F;
  16F : FE744783;
  170 : 00078593;
  171 : FBC42503;
  172 : CE9FF0EF;
  173 : 0500006F;
  174 : 02500593;
  175 : FBC42503;
  176 : CD9FF0EF;
  177 : FE744783;
  178 : 00078593;
  179 : FBC42503;
  17A : CC9FF0EF;
  17B : 00000013;
  17C : 02C0006F;
  17D : FE744703;
  17E : 00A00793;
  17F : 00F71863;
  180 : 00D00593;
  181 : FBC42503;
  182 : CA9FF0EF;
  183 : FE744783;
  184 : 00078593;
  185 : FBC42503;
  186 : C99FF0EF;
  187 : FB842783;
  188 : 00178713;
  189 : FAE42C23;
  18A : 0007C783;
  18B : FEF403A3;
  18C : FE744783;
  18D : DA0790E3;
  18E : 00000013;
  18F : 00000013;
  190 : 04C12083;
  191 : 04812403;
  192 : 05010113;
  193 : 00008067;
  194 : FB010113;
  195 : 02112623;
  196 : 02812423;
  197 : 03010413;
  198 : FCA42E23;
  199 : FCB42C23;
  19A : 00C42423;
  19B : 00D42623;
  19C : 00E42823;
  19D : 00F42A23;
  19E : 01042C23;
  19F : 01142E23;
  1A0 : 02040793;
  1A1 : FCF42A23;
  1A2 : FD442783;
  1A3 : FE878793;
  1A4 : FEF42623;
  1A5 : FEC42783;
  1A6 : 00078613;
  1A7 : FD842583;
  1A8 : FDC42503;
  1A9 : CD5FF0EF;
  1AA : 00000013;
  1AB : 02C12083;
  1AC : 02812403;
  1AD : 05010113;
  1AE : 00008067;
  1AF : FA010113;
  1B0 : 04112E23;
  1B1 : 04812C23;
  1B2 : 06010413;
  1B3 : FAA42623;
  1B4 : FAB42423;
  1B5 : FAC42223;
  1B6 : 710017B7;
  1B7 : 2FC78793;
  1B8 : 0007A603;
  1B9 : 0047A683;
  1BA : 0087A703;
  1BB : 00C7A783;
  1BC : FCC42C23;
  1BD : FCD42E23;
  1BE : FEE42023;
  1BF : FEF42223;
  1C0 : FE042623;
  1C1 : FE042423;
  1C2 : FE042423;
  1C3 : 0200006F;
  1C4 : FE842783;
  1C5 : FF078793;
  1C6 : 008787B3;
  1C7 : FC078223;
  1C8 : FE842783;
  1C9 : 00178793;
  1CA : FEF42423;
  1CB : FE842703;
  1CC : 02300793;
  1CD : FCE7FEE3;
  1CE : FA442703;
  1CF : 00100793;
  1D0 : 00E7F863;
  1D1 : FA442703;
  1D2 : 01000793;
  1D3 : 00E7F863;
  1D4 : FAC42783;
  1D5 : 00078023;
  1D6 : 0F00006F;
  1D7 : FE042423;
  1D8 : 0200006F;
  1D9 : FE842783;
  1DA : FF078793;
  1DB : 008787B3;
  1DC : FC078223;
  1DD : FE842783;
  1DE : 00178793;
  1DF : FEF42423;
  1E0 : FE842703;
  1E1 : 02300793;
  1E2 : FCE7FEE3;
  1E3 : FB440793;
  1E4 : 02378793;
  1E5 : FEF42623;
  1E6 : FEC42783;
  1E7 : FFF78793;
  1E8 : FEF42623;
  1E9 : FA842783;
  1EA : FA442583;
  1EB : 00078513;
  1EC : 259000EF;
  1ED : 00050793;
  1EE : FF078793;
  1EF : 008787B3;
  1F0 : FE87C703;
  1F1 : FEC42783;
  1F2 : 00E78023;
  1F3 : FA442583;
  1F4 : FA842503;
  1F5 : 1ED000EF;
  1F6 : 00050793;
  1F7 : FAF42423;
  1F8 : FA842783;
  1F9 : FA079AE3;
  1FA : FE042423;
  1FB : 0480006F;
  1FC : FE842783;
  1FD : FF078793;
  1FE : 008787B3;
  1FF : FC47C783;
  200 : 02078463;
  201 : FE842783;
  202 : FF078793;
  203 : 008787B3;
  204 : FC47C703;
  205 : FAC42783;
  206 : 00E78023;
  207 : FAC42783;
  208 : 00178793;
  209 : FAF42623;
  20A : FE842783;
  20B : 00178793;
  20C : FEF42423;
  20D : FE842703;
  20E : 02300793;
  20F : FAE7FAE3;
  210 : FAC42783;
  211 : 00078023;
  212 : 05C12083;
  213 : 05812403;
  214 : 06010113;
  215 : 00008067;
  216 : FD010113;
  217 : 02812623;
  218 : 03010413;
  219 : 000027B7;
  21A : 80078793;
  21B : FCF42A23;
  21C : FD442783;
  21D : FCF42823;
  21E : FD042783;
  21F : 30079073;
  220 : 00000013;
  221 : 710017B7;
  222 : 92078793;
  223 : FCF42E23;
  224 : FDC42783;
  225 : FCF42C23;
  226 : FD842783;
  227 : 30579073;
  228 : 00000013;
  229 : FE042223;
  22A : FE442783;
  22B : FEF42023;
  22C : FE042783;
  22D : 30479073;
  22E : 00000013;
  22F : F14027F3;
  230 : FEF42423;
  231 : FE842783;
  232 : 04079463;
  233 : FE042623;
  234 : 0300006F;
  235 : 710017B7;
  236 : D0478713;
  237 : 800007B7;
  238 : 00078693;
  239 : FEC42783;
  23A : 00279793;
  23B : 00F687B3;
  23C : 00E7A023;
  23D : FEC42783;
  23E : 00178793;
  23F : FEF42623;
  240 : FEC42703;
  241 : 01C00793;
  242 : FCE7D6E3;
  243 : 0FF0000F;
  244 : 00000013;
  245 : 02C12403;
  246 : 03010113;
  247 : 00008067;
  248 : 34011073;
  249 : F8010113;
  24A : 00012023;
  24B : 00112223;
  24C : 340110F3;
  24D : 00112423;
  24E : 00312623;
  24F : 00412823;
  250 : 00512A23;
  251 : 00612C23;
  252 : 00712E23;
  253 : 02812023;
  254 : 02912223;
  255 : 02A12423;
  256 : 02B12623;
  257 : 02C12823;
  258 : 02D12A23;
  259 : 02E12C23;
  25A : 02F12E23;
  25B : 05012023;
  25C : 05112223;
  25D : 05212423;
  25E : 05312623;
  25F : 05412823;
  260 : 05512A23;
  261 : 05612C23;
  262 : 05712E23;
  263 : 07812023;
  264 : 07912223;
  265 : 07A12423;
  266 : 07B12623;
  267 : 07C12823;
  268 : 07D12A23;
  269 : 07E12C23;
  26A : 07F12E23;
  26B : 0FF0000F;
  26C : 342027F3;
  26D : 00078493;
  26E : 00048793;
  26F : 00B00713;
  270 : 04F76A63;
  271 : 0300006F;
  272 : 80000737;
  273 : FFD70713;
  274 : 00E787B3;
  275 : 01C00713;
  276 : 22F76463;
  277 : 00279713;
  278 : 710027B7;
  279 : FB478793;
  27A : 00F707B3;
  27B : 0007A783;
  27C : 00078067;
  27D : 00B00713;
  27E : 20F76463;
  27F : 00279713;
  280 : 710027B7;
  281 : 02878793;
  282 : 00F707B3;
  283 : 0007A783;
  284 : 00078067;
  285 : 80000737;
  286 : 01F70713;
  287 : 1EF76263;
  288 : 80000737;
  289 : 00370713;
  28A : FAE7F0E3;
  28B : 1D40006F;
  28C : 800007B7;
  28D : 00078793;
  28E : 0007A483;
  28F : 1D00006F;
  290 : 800007B7;
  291 : 00078793;
  292 : 0047A483;
  293 : 1C00006F;
  294 : 800007B7;
  295 : 00078793;
  296 : 0087A483;
  297 : 1B00006F;
  298 : 800007B7;
  299 : 00078793;
  29A : 00C7A483;
  29B : 1A00006F;
  29C : 800007B7;
  29D : 00078793;
  29E : 0107A483;
  29F : 1900006F;
  2A0 : 800007B7;
  2A1 : 00078793;
  2A2 : 0147A483;
  2A3 : 1800006F;
  2A4 : 800007B7;
  2A5 : 00078793;
  2A6 : 0187A483;
  2A7 : 1700006F;
  2A8 : 800007B7;
  2A9 : 00078793;
  2AA : 01C7A483;
  2AB : 1600006F;
  2AC : 800007B7;
  2AD : 00078793;
  2AE : 0207A483;
  2AF : 1500006F;
  2B0 : 800007B7;
  2B1 : 00078793;
  2B2 : 0247A483;
  2B3 : 1400006F;
  2B4 : 800007B7;
  2B5 : 00078793;
  2B6 : 0287A483;
  2B7 : 1300006F;
  2B8 : 800007B7;
  2B9 : 00078793;
  2BA : 02C7A483;
  2BB : 1200006F;
  2BC : 800007B7;
  2BD : 00078793;
  2BE : 0307A483;
  2BF : 1100006F;
  2C0 : 800007B7;
  2C1 : 00078793;
  2C2 : 0347A483;
  2C3 : 1000006F;
  2C4 : 800007B7;
  2C5 : 00078793;
  2C6 : 0387A483;
  2C7 : 0F00006F;
  2C8 : 800007B7;
  2C9 : 00078793;
  2CA : 03C7A483;
  2CB : 0E00006F;
  2CC : 800007B7;
  2CD : 00078793;
  2CE : 0407A483;
  2CF : 0D00006F;
  2D0 : 800007B7;
  2D1 : 00078793;
  2D2 : 0447A483;
  2D3 : 0C00006F;
  2D4 : 800007B7;
  2D5 : 00078793;
  2D6 : 0487A483;
  2D7 : 0B00006F;
  2D8 : 800007B7;
  2D9 : 00078793;
  2DA : 04C7A483;
  2DB : 0A00006F;
  2DC : 800007B7;
  2DD : 00078793;
  2DE : 0507A483;
  2DF : 0900006F;
  2E0 : 800007B7;
  2E1 : 00078793;
  2E2 : 0547A483;
  2E3 : 0800006F;
  2E4 : 800007B7;
  2E5 : 00078793;
  2E6 : 0587A483;
  2E7 : 0700006F;
  2E8 : 800007B7;
  2E9 : 00078793;
  2EA : 05C7A483;
  2EB : 0600006F;
  2EC : 800007B7;
  2ED : 00078793;
  2EE : 0607A483;
  2EF : 0500006F;
  2F0 : 800007B7;
  2F1 : 00078793;
  2F2 : 0647A483;
  2F3 : 0400006F;
  2F4 : 800007B7;
  2F5 : 00078793;
  2F6 : 0687A483;
  2F7 : 0300006F;
  2F8 : 800007B7;
  2F9 : 00078793;
  2FA : 06C7A483;
  2FB : 0200006F;
  2FC : 800007B7;
  2FD : 00078793;
  2FE : 0707A483;
  2FF : 0100006F;
  300 : 710017B7;
  301 : D0478493;
  302 : 00000013;
  303 : 00048463;
  304 : 000480E7;
  305 : 342027F3;
  306 : 00078493;
  307 : 00048793;
  308 : 00078493;
  309 : 00048793;
  30A : 0407CC63;
  30B : 00100793;
  30C : 04F48863;
  30D : 341027F3;
  30E : 00078493;
  30F : 00048793;
  310 : 00078493;
  311 : 00448493;
  312 : 301027F3;
  313 : 00078913;
  314 : 00090793;
  315 : 0047F793;
  316 : 02078063;
  317 : 34A027F3;
  318 : 00078913;
  319 : 00090793;
  31A : 0037F713;
  31B : 00300793;
  31C : 00F70463;
  31D : FFE48493;
  31E : 34149073;
  31F : 00000013;
  320 : 00412083;
  321 : 00C12183;
  322 : 01012203;
  323 : 01412283;
  324 : 01812303;
  325 : 01C12383;
  326 : 02012403;
  327 : 02412483;
  328 : 02812503;
  329 : 02C12583;
  32A : 03012603;
  32B : 03412683;
  32C : 03812703;
  32D : 03C12783;
  32E : 04012803;
  32F : 04412883;
  330 : 04812903;
  331 : 04C12983;
  332 : 05012A03;
  333 : 05412A83;
  334 : 05812B03;
  335 : 05C12B83;
  336 : 06012C03;
  337 : 06412C83;
  338 : 06812D03;
  339 : 06C12D83;
  33A : 07012E03;
  33B : 07412E83;
  33C : 07812F03;
  33D : 07C12F83;
  33E : 00812103;
  33F : 30200073;
  340 : 00000013;
  341 : FC010113;
  342 : 02112E23;
  343 : 02812C23;
  344 : 04010413;
  345 : FFF50537;
  346 : BFCFF0EF;
  347 : 00050793;
  348 : 38078C63;
  349 : 710027B7;
  34A : 05878593;
  34B : FFF50537;
  34C : DCCFF0EF;
  34D : F14027F3;
  34E : FEF42423;
  34F : FE842783;
  350 : 0017F793;
  351 : 00078C63;
  352 : 710027B7;
  353 : 06878593;
  354 : FFF50537;
  355 : DA8FF0EF;
  356 : 0140006F;
  357 : 710027B7;
  358 : 07078593;
  359 : FFF50537;
  35A : D94FF0EF;
  35B : 300027F3;
  35C : FEF42223;
  35D : FE442703;
  35E : 000027B7;
  35F : 80078793;
  360 : 00F777B3;
  361 : 00078C63;
  362 : 710027B7;
  363 : 07878593;
  364 : FFF50537;
  365 : D68FF0EF;
  366 : 0140006F;
  367 : 710027B7;
  368 : 07C78593;
  369 : FFF50537;
  36A : D54FF0EF;
  36B : 342027F3;
  36C : FEF42023;
  36D : FE042783;
  36E : FEF42623;
  36F : FEC42703;
  370 : 800007B7;
  371 : 01F78793;
  372 : 1CE7E063;
  373 : FEC42703;
  374 : 800007B7;
  375 : 01078793;
  376 : 18F77863;
  377 : FEC42703;
  378 : 800007B7;
  379 : 00B78793;
  37A : 16F70663;
  37B : FEC42703;
  37C : 800007B7;
  37D : 00B78793;
  37E : 18E7E863;
  37F : FEC42703;
  380 : 800007B7;
  381 : 00778793;
  382 : 12F70C63;
  383 : FEC42703;
  384 : 800007B7;
  385 : 00778793;
  386 : 16E7E863;
  387 : FEC42703;
  388 : 00B00793;
  389 : 02E7E663;
  38A : FEC42703;
  38B : 00B00793;
  38C : 14E7EC63;
  38D : FEC42783;
  38E : 00279713;
  38F : 710027B7;
  390 : 27C78793;
  391 : 00F707B3;
  392 : 0007A783;
  393 : 00078067;
  394 : FEC42703;
  395 : 800007B7;
  396 : 00378793;
  397 : 0CF70863;
  398 : 1280006F;
  399 : 710027B7;
  39A : 08078593;
  39B : FFF50537;
  39C : C8CFF0EF;
  39D : 1340006F;
  39E : 710027B7;
  39F : 09C78593;
  3A0 : FFF50537;
  3A1 : C78FF0EF;
  3A2 : 1200006F;
  3A3 : 710027B7;
  3A4 : 0B078593;
  3A5 : FFF50537;
  3A6 : C64FF0EF;
  3A7 : 10C0006F;
  3A8 : 710027B7;
  3A9 : 0D078593;
  3AA : FFF50537;
  3AB : C50FF0EF;
  3AC : 0F80006F;
  3AD : 710027B7;
  3AE : 0E878593;
  3AF : FFF50537;
  3B0 : C3CFF0EF;
  3B1 : 0E40006F;
  3B2 : 710027B7;
  3B3 : 10078593;
  3B4 : FFF50537;
  3B5 : C28FF0EF;
  3B6 : 0D00006F;
  3B7 : 710027B7;
  3B8 : 11478593;
  3B9 : FFF50537;
  3BA : C14FF0EF;
  3BB : 0BC0006F;
  3BC : 710027B7;
  3BD : 13078593;
  3BE : FFF50537;
  3BF : C00FF0EF;
  3C0 : 0A80006F;
  3C1 : 710027B7;
  3C2 : 14478593;
  3C3 : FFF50537;
  3C4 : BECFF0EF;
  3C5 : 0940006F;
  3C6 : 710027B7;
  3C7 : 16478593;
  3C8 : FFF50537;
  3C9 : BD8FF0EF;
  3CA : 0800006F;
  3CB : 710027B7;
  3CC : 18478593;
  3CD : FFF50537;
  3CE : BC4FF0EF;
  3CF : 06C0006F;
  3D0 : 710027B7;
  3D1 : 19C78593;
  3D2 : FFF50537;
  3D3 : BB0FF0EF;
  3D4 : 0580006F;
  3D5 : 710027B7;
  3D6 : 1B078593;
  3D7 : FFF50537;
  3D8 : B9CFF0EF;
  3D9 : 0440006F;
  3DA : 710027B7;
  3DB : 1C878593;
  3DC : FFF50537;
  3DD : B88FF0EF;
  3DE : 00100593;
  3DF : FEC42503;
  3E0 : 14C000EF;
  3E1 : 0240006F;
  3E2 : 710027B7;
  3E3 : 1D478593;
  3E4 : FFF50537;
  3E5 : B68FF0EF;
  3E6 : 00800593;
  3E7 : FEC42503;
  3E8 : 12C000EF;
  3E9 : 00000013;
  3EA : 710027B7;
  3EB : 1E878593;
  3EC : FFF50537;
  3ED : B48FF0EF;
  3EE : 341027F3;
  3EF : FCF42A23;
  3F0 : FD442783;
  3F1 : 00800593;
  3F2 : 00078513;
  3F3 : 100000EF;
  3F4 : 710027B7;
  3F5 : 1F078593;
  3F6 : FFF50537;
  3F7 : B20FF0EF;
  3F8 : 34A027F3;
  3F9 : FCF42C23;
  3FA : FD842783;
  3FB : 00800593;
  3FC : 00078513;
  3FD : 0D8000EF;
  3FE : 710027B7;
  3FF : 1FC78593;
  400 : FFF50537;
  401 : AF8FF0EF;
  402 : 343027F3;
  403 : FCF42E23;
  404 : FDC42783;
  405 : 00800593;
  406 : 00078513;
  407 : 0B0000EF;
  408 : FEC42783;
  409 : 0207DE63;
  40A : 710027B7;
  40B : 20878593;
  40C : FFF50537;
  40D : AC8FF0EF;
  40E : FEC42783;
  40F : 01F7F793;
  410 : 00100713;
  411 : 00F717B3;
  412 : FCF42823;
  413 : FD042783;
  414 : FCF42623;
  415 : FCC42783;
  416 : 3047B073;
  417 : 00000013;
  418 : FEC42703;
  419 : 00100793;
  41A : 00F70663;
  41B : FEC42783;
  41C : 02079A63;
  41D : 710027B7;
  41E : 22078593;
  41F : FFF50537;
  420 : A7CFF0EF;
  421 : FC042423;
  422 : FC842783;
  423 : FCF42223;
  424 : FC442783;
  425 : 30479073;
  426 : 00000013;
  427 : 10500073;
  428 : FFDFF06F;
  429 : 710027B7;
  42A : 25478593;
  42B : FFF50537;
  42C : A4CFF0EF;
  42D : 0080006F;
  42E : 00000013;
  42F : 03C12083;
  430 : 03812403;
  431 : 04010113;
  432 : 00008067;
  433 : FC010113;
  434 : 02112E23;
  435 : 02812C23;
  436 : 04010413;
  437 : FCA42623;
  438 : FCB42423;
  439 : FE042623;
  43A : 710027B7;
  43B : 26878793;
  43C : 0007A583;
  43D : 0047A603;
  43E : 0087A683;
  43F : 00C7A703;
  440 : FCB42A23;
  441 : FCC42C23;
  442 : FCD42E23;
  443 : FEE42023;
  444 : 0107C783;
  445 : FEF40223;
  446 : FFF50537;
  447 : FF9FE0EF;
  448 : 00050793;
  449 : 08078063;
  44A : 03000593;
  44B : FFF50537;
  44C : 980FF0EF;
  44D : 07800593;
  44E : FFF50537;
  44F : 974FF0EF;
  450 : FC842783;
  451 : FF878793;
  452 : FEF42623;
  453 : 04C0006F;
  454 : 00700713;
  455 : FEC42783;
  456 : 40F707B3;
  457 : 00279793;
  458 : FCC42703;
  459 : 00F757B3;
  45A : 00F7F793;
  45B : FEF42423;
  45C : FE842783;
  45D : FF078793;
  45E : 008787B3;
  45F : FE47C783;
  460 : 00078593;
  461 : FFF50537;
  462 : 928FF0EF;
  463 : FEC42783;
  464 : 00178793;
  465 : FEF42623;
  466 : FEC42703;
  467 : 00700793;
  468 : FAE7D8E3;
  469 : 00000013;
  46A : 03C12083;
  46B : 03812403;
  46C : 04010113;
  46D : 00008067;
  46E : 06054063;
  46F : 0605C663;
  470 : 00058613;
  471 : 00050593;
  472 : FFF00513;
  473 : 02060C63;
  474 : 00100693;
  475 : 00B67A63;
  476 : 00C05863;
  477 : 00161613;
  478 : 00169693;
  479 : FEB66AE3;
  47A : 00000513;
  47B : 00C5E663;
  47C : 40C585B3;
  47D : 00D56533;
  47E : 0016D693;
  47F : 00165613;
  480 : FE0696E3;
  481 : 00008067;
  482 : 00008293;
  483 : FB5FF0EF;
  484 : 00058513;
  485 : 00028067;
  486 : 40A00533;
  487 : 00B04863;
  488 : 40B005B3;
  489 : F9DFF06F;
  48A : 40B005B3;
  48B : 00008293;
  48C : F91FF0EF;
  48D : 40A00533;
  48E : 00028067;
  48F : 00008293;
  490 : 0005CA63;
  491 : 00054C63;
  492 : F79FF0EF;
  493 : 00058513;
  494 : 00028067;
  495 : 40B005B3;
  496 : FE0558E3;
  497 : 40A00533;
  498 : F61FF0EF;
  499 : 40B00533;
  49A : 00028067;
  49B : 00050793;
  49C : 0007C703;
  49D : 00178793;
  49E : FE071CE3;
  49F : 40A78533;
  4A0 : FFF50513;
  4A1 : 00008067;
  4A2 : 6C6C6548;
  4A3 : 6F77206F;
  4A4 : 21646C72;
  4A5 : 0000000A;
  4A6 : 20746F47;
  4A7 : 78257830;
  4A8 : 0000000A;
  4A9 : 7100048C;
  4AA : 710004B0;
  4AB : 710005D0;
  4AC : 710005D0;
  4AD : 710005D0;
  4AE : 710005D0;
  4AF : 710004B0;
  4B0 : 710005D0;
  4B1 : 710005D0;
  4B2 : 710005D0;
  4B3 : 710005D0;
  4B4 : 710005D0;
  4B5 : 710005D0;
  4B6 : 71000548;
  4B7 : 710005D0;
  4B8 : 710005D0;
  4B9 : 7100046C;
  4BA : 710005D0;
  4BB : 71000510;
  4BC : 710005D0;
  4BD : 710005D0;
  4BE : 71000548;
  4BF : 33323130;
  4C0 : 37363534;
  4C1 : 62613938;
  4C2 : 66656463;
  4C3 : 3C3C0A0A;
  4C4 : 4F454E20;
  4C5 : 32335652;
  4C6 : 6F725020;
  4C7 : 73736563;
  4C8 : 4320726F;
  4C9 : 69666E6F;
  4CA : 61727567;
  4CB : 6E6F6974;
  4CC : 0A3E3E20;
  4CD : 0000000A;
  4CE : 73207349;
  4CF : 6C756D69;
  4D0 : 6F697461;
  4D1 : 20203A6E;
  4D2 : 20202020;
  4D3 : 00000020;
  4D4 : 0A736579;
  4D5 : 00000000;
  4D6 : 000A6F6E;
  4D7 : 20555043;
  4D8 : 65726F63;
  4D9 : 68282073;
  4DA : 73747261;
  4DB : 20203A29;
  4DC : 0A752520;
  4DD : 00000000;
  4DE : 636F6C43;
  4DF : 7073206B;
  4E0 : 3A646565;
  4E1 : 20202020;
  4E2 : 20202020;
  4E3 : 20752520;
  4E4 : 000A7A48;
  4E5 : 632D6E4F;
  4E6 : 20706968;
  4E7 : 75626564;
  4E8 : 72656767;
  4E9 : 2020203A;
  4EA : 00000020;
  4EB : 62616E65;
  4EC : 0064656C;
  4ED : 61736964;
  4EE : 64656C62;
  4EF : 00000000;
  4F0 : 61202B20;
  4F1 : 65687475;
  4F2 : 6369746E;
  4F3 : 6F697461;
  4F4 : 00000A6E;
  4F5 : 0000000A;
  4F6 : 74726148;
  4F7 : 3A444920;
  4F8 : 20202020;
  4F9 : 20202020;
  4FA : 20202020;
  4FB : 25783020;
  4FC : 72410A78;
  4FD : 74696863;
  4FE : 75746365;
  4FF : 49206572;
  500 : 20203A44;
  501 : 30202020;
  502 : 0A782578;
  503 : 6C706D49;
  504 : 6E656D65;
  505 : 69746174;
  506 : 49206E6F;
  507 : 20203A44;
  508 : 25783020;
  509 : 00000078;
  50A : 00762820;
  50B : 00000A29;
  50C : 68637241;
  50D : 63657469;
  50E : 65727574;
  50F : 2020203A;
  510 : 20202020;
  511 : 00000020;
  512 : 32337672;
  513 : 74696C2D;
  514 : 00656C74;
  515 : 6E6B6E75;
  516 : 006E776F;
  517 : 4153490A;
  518 : 74786520;
  519 : 69736E65;
  51A : 3A736E6F;
  51B : 20202020;
  51C : 00002020;
  51D : 78656453;
  51E : 00002074;
  51F : 72746453;
  520 : 00206769;
  521 : 6D706D53;
  522 : 00002070;
  523 : 6D61615A;
  524 : 0000206F;
  525 : 726C615A;
  526 : 00206373;
  527 : 2061625A;
  528 : 00000000;
  529 : 2062625A;
  52A : 00000000;
  52B : 626B625A;
  52C : 00000020;
  52D : 636B625A;
  52E : 00000020;
  52F : 786B625A;
  530 : 00000020;
  531 : 2073625A;
  532 : 00000000;
  533 : 6E69665A;
  534 : 00002078;
  535 : 6E63695A;
  536 : 00207274;
  537 : 6F63695A;
  538 : 0020646E;
  539 : 7363695A;
  53A : 00002072;
  53B : 6566695A;
  53C : 6965636E;
  53D : 00000020;
  53E : 7068695A;
  53F : 0000206D;
  540 : 206E6B5A;
  541 : 00000000;
  542 : 646E6B5A;
  543 : 00000020;
  544 : 656E6B5A;
  545 : 00000020;
  546 : 686E6B5A;
  547 : 00000020;
  548 : 20736B5A;
  549 : 00000000;
  54A : 65736B5A;
  54B : 00002064;
  54C : 68736B5A;
  54D : 00000020;
  54E : 20746B5A;
  54F : 00000000;
  550 : 756D6D5A;
  551 : 0000206C;
  552 : 6663785A;
  553 : 00002075;
  554 : 6E75540A;
  555 : 20676E69;
  556 : 6974706F;
  557 : 3A736E6F;
  558 : 20202020;
  559 : 00002020;
  55A : 74736166;
  55B : 6C756D5F;
  55C : 00000020;
  55D : 74736166;
  55E : 6968735F;
  55F : 00207466;
  560 : 685F6672;
  561 : 73725F77;
  562 : 00002074;
  563 : 7968500A;
  564 : 4D202E73;
  565 : 726F6D65;
  566 : 72502079;
  567 : 3A2E746F;
  568 : 00002020;
  569 : 72207525;
  56A : 6F696765;
  56B : 2973286E;
  56C : 7525202C;
  56D : 74796220;
  56E : 67207365;
  56F : 756E6172;
  570 : 6972616C;
  571 : 202C7974;
  572 : 65646F6D;
  573 : 003D2073;
  574 : 46464F20;
  575 : 00000000;
  576 : 524F5420;
  577 : 00000000;
  578 : 34414E20;
  579 : 00000000;
  57A : 50414E20;
  57B : 0000544F;
  57C : 656E6F6E;
  57D : 00000000;
  57E : 4D50480A;
  57F : 756F6320;
  580 : 7265746E;
  581 : 20203A73;
  582 : 20202020;
  583 : 00002020;
  584 : 63207525;
  585 : 746E756F;
  586 : 73287265;
  587 : 25202C29;
  588 : 69622075;
  589 : 29732874;
  58A : 64697720;
  58B : 00000065;
  58C : 6F6F420A;
  58D : 6F632074;
  58E : 6769666E;
  58F : 74617275;
  590 : 3A6E6F69;
  591 : 00002020;
  592 : 746F6F62;
  593 : 61697620;
  594 : 6F6F6220;
  595 : 616F6C74;
  596 : 20726564;
  597 : 0A293028;
  598 : 00000000;
  599 : 746F6F62;
  59A : 6F726620;
  59B : 7563206D;
  59C : 6D6F7473;
  59D : 64646120;
  59E : 73736572;
  59F : 29312820;
  5A0 : 0000000A;
  5A1 : 746F6F62;
  5A2 : 6F726620;
  5A3 : 7270206D;
  5A4 : 6E692D65;
  5A5 : 61697469;
  5A6 : 657A696C;
  5A7 : 4D492064;
  5A8 : 28204D45;
  5A9 : 000A2932;
  5AA : 6E6B6E75;
  5AB : 206E776F;
  5AC : 29752528;
  5AD : 0000000A;
  5AE : 65746E49;
  5AF : 6C616E72;
  5B0 : 454D4920;
  5B1 : 20203A4D;
  5B2 : 20202020;
  5B3 : 00000020;
  5B4 : 62207525;
  5B5 : 73657479;
  5B6 : 0000000A;
  5B7 : 656E6F6E;
  5B8 : 0000000A;
  5B9 : 65746E49;
  5BA : 6C616E72;
  5BB : 454D4420;
  5BC : 20203A4D;
  5BD : 20202020;
  5BE : 00000020;
  5BF : 20555043;
  5C0 : 61632D49;
  5C1 : 3A656863;
  5C2 : 20202020;
  5C3 : 20202020;
  5C4 : 00000020;
  5C5 : 62207525;
  5C6 : 73657479;
  5C7 : 75252820;
  5C8 : 29752578;
  5C9 : 0000000A;
  5CA : 20555043;
  5CB : 61632D44;
  5CC : 3A656863;
  5CD : 20202020;
  5CE : 20202020;
  5CF : 00000020;
  5D0 : 2E747845;
  5D1 : 73756220;
  5D2 : 746E6920;
  5D3 : 61667265;
  5D4 : 203A6563;
  5D5 : 00000020;
  5D6 : 62616E65;
  5D7 : 0A64656C;
  5D8 : 00000000;
  5D9 : 69726550;
  5DA : 72656870;
  5DB : 3A736C61;
  5DC : 20202020;
  5DD : 20202020;
  5DE : 00000020;
  5DF : 20534643;
  5E0 : 00000000;
  5E1 : 4E494C43;
  5E2 : 00002054;
  5E3 : 20435243;
  5E4 : 00000000;
  5E5 : 20414D44;
  5E6 : 00000000;
  5E7 : 4F495047;
  5E8 : 00000020;
  5E9 : 4D545047;
  5EA : 00002052;
  5EB : 4C4F454E;
  5EC : 00204445;
  5ED : 57454E4F;
  5EE : 20455249;
  5EF : 00000000;
  5F0 : 204D5750;
  5F1 : 00000000;
  5F2 : 20494453;
  5F3 : 00000000;
  5F4 : 4E494C53;
  5F5 : 0000204B;
  5F6 : 20495053;
  5F7 : 00000000;
  5F8 : 49535953;
  5F9 : 204F464E;
  5FA : 00000000;
  5FB : 474E5254;
  5FC : 00000020;
  5FD : 20445754;
  5FE : 00000000;
  5FF : 20495754;
  600 : 00000000;
  601 : 54524155;
  602 : 00002030;
  603 : 54524155;
  604 : 00002031;
  605 : 20544457;
  606 : 00000000;
  607 : 00000A0A;
  608 : 20656854;
  609 : 524F454E;
  60A : 20323356;
  60B : 43534952;
  60C : 5020562D;
  60D : 65636F72;
  60E : 726F7373;
  60F : 6967202C;
  610 : 62756874;
  611 : 6D6F632E;
  612 : 6E74732F;
  613 : 69746C6F;
  614 : 6E2F676E;
  615 : 76726F65;
  616 : 430A3233;
  617 : 7279706F;
  618 : 74686769;
  619 : 29632820;
  61A : 4F454E20;
  61B : 32335652;
  61C : 6E6F6320;
  61D : 62697274;
  61E : 726F7475;
  61F : 430A2E73;
  620 : 7279706F;
  621 : 74686769;
  622 : 29632820;
  623 : 32303220;
  624 : 202D2030;
  625 : 35323032;
  626 : 7453202C;
  627 : 61687065;
  628 : 6F4E206E;
  629 : 6E69746C;
  62A : 41202E67;
  62B : 72206C6C;
  62C : 74686769;
  62D : 65722073;
  62E : 76726573;
  62F : 0A2E6465;
  630 : 58445053;
  631 : 63694C2D;
  632 : 65736E65;
  633 : 6564492D;
  634 : 6669746E;
  635 : 3A726569;
  636 : 44534220;
  637 : 432D332D;
  638 : 7375616C;
  639 : 00000A65;
  63A : 00000000;
  63B : 00000000;
  63C : 03000000;
  63D : 60C7C630;
  63E : 87F8FC7F;
  63F : F87FC0C7;
  640 : FFFC8303;
  641 : 00C0F0CC;
  642 : C0CCCC0C;
  643 : C30F0CC0;
  644 : D8CC000F;
  645 : CC0C00C0;
  646 : 0C01C0C0;
  647 : 1F8C8303;
  648 : F8C0CCCF;
  649 : C0C0CFF8;
  64A : 030FF806;
  64B : C6CC1F8F;
  64C : CC1800C0;
  64D : 0C186180;
  64E : 1F8C0303;
  64F : 00C0C3CC;
  650 : 330CCC0C;
  651 : 030F0C60;
  652 : C187000F;
  653 : 8C06FC7F;
  654 : F8FF0C07;
  655 : FFFCC303;
  656 : 00000000;
  657 : 00000000;
  658 : 03000000;
  659 : 0000C630;
  65A : 4453420A;
  65B : 432D3320;
  65C : 7375616C;
  65D : 694C2065;
  65E : 736E6563;
  65F : 430A0A65;
  660 : 7279706F;
  661 : 74686769;
  662 : 29632820;
  663 : 4F454E20;
  664 : 32335652;
  665 : 6E6F6320;
  666 : 62697274;
  667 : 726F7475;
  668 : 430A2E73;
  669 : 7279706F;
  66A : 74686769;
  66B : 29632820;
  66C : 32303220;
  66D : 202D2030;
  66E : 35323032;
  66F : 7453202C;
  670 : 61687065;
  671 : 6F4E206E;
  672 : 6E69746C;
  673 : 41202E67;
  674 : 72206C6C;
  675 : 74686769;
  676 : 65722073;
  677 : 76726573;
  678 : 0A2E6465;
  679 : 6465520A;
  67A : 72747369;
  67B : 74756269;
  67C : 206E6F69;
  67D : 20646E61;
  67E : 20657375;
  67F : 73206E69;
  680 : 6372756F;
  681 : 6E612065;
  682 : 69622064;
  683 : 7972616E;
  684 : 726F6620;
  685 : 202C736D;
  686 : 68746977;
  687 : 20726F20;
  688 : 68746977;
  689 : 2074756F;
  68A : 69646F6D;
  68B : 61636966;
  68C : 6E6F6974;
  68D : 7261202C;
  68E : 65700A65;
  68F : 74696D72;
  690 : 20646574;
  691 : 766F7270;
  692 : 64656469;
  693 : 61687420;
  694 : 68742074;
  695 : 6F662065;
  696 : 776F6C6C;
  697 : 20676E69;
  698 : 646E6F63;
  699 : 6F697469;
  69A : 6120736E;
  69B : 6D206572;
  69C : 0A3A7465;
  69D : 202E310A;
  69E : 69646552;
  69F : 69727473;
  6A0 : 69747562;
  6A1 : 20736E6F;
  6A2 : 7320666F;
  6A3 : 6372756F;
  6A4 : 6F632065;
  6A5 : 6D206564;
  6A6 : 20747375;
  6A7 : 61746572;
  6A8 : 74206E69;
  6A9 : 61206568;
  6AA : 65766F62;
  6AB : 706F6320;
  6AC : 67697279;
  6AD : 6E207468;
  6AE : 6369746F;
  6AF : 74202C65;
  6B0 : 20736968;
  6B1 : 7473696C;
  6B2 : 0A666F20;
  6B3 : 63202020;
  6B4 : 69646E6F;
  6B5 : 6E6F6974;
  6B6 : 6E612073;
  6B7 : 68742064;
  6B8 : 6F662065;
  6B9 : 776F6C6C;
  6BA : 20676E69;
  6BB : 63736964;
  6BC : 6D69616C;
  6BD : 0A2E7265;
  6BE : 202E320A;
  6BF : 69646552;
  6C0 : 69727473;
  6C1 : 69747562;
  6C2 : 20736E6F;
  6C3 : 62206E69;
  6C4 : 72616E69;
  6C5 : 6F662079;
  6C6 : 6D206D72;
  6C7 : 20747375;
  6C8 : 72706572;
  6C9 : 6375646F;
  6CA : 68742065;
  6CB : 62612065;
  6CC : 2065766F;
  6CD : 79706F63;
  6CE : 68676972;
  6CF : 6F6E2074;
  6D0 : 65636974;
  6D1 : 6874202C;
  6D2 : 6C207369;
  6D3 : 20747369;
  6D4 : 200A666F;
  6D5 : 6F632020;
  6D6 : 7469646E;
  6D7 : 736E6F69;
  6D8 : 646E6120;
  6D9 : 65687420;
  6DA : 6C6F6620;
  6DB : 69776F6C;
  6DC : 6420676E;
  6DD : 6C637369;
  6DE : 656D6961;
  6DF : 6E692072;
  6E0 : 65687420;
  6E1 : 636F6420;
  6E2 : 6E656D75;
  6E3 : 69746174;
  6E4 : 61206E6F;
  6E5 : 6F2F646E;
  6E6 : 746F2072;
  6E7 : 20726568;
  6E8 : 6574616D;
  6E9 : 6C616972;
  6EA : 20200A73;
  6EB : 6F727020;
  6EC : 65646976;
  6ED : 69772064;
  6EE : 74206874;
  6EF : 64206568;
  6F0 : 72747369;
  6F1 : 74756269;
  6F2 : 2E6E6F69;
  6F3 : 2E330A0A;
  6F4 : 69654E20;
  6F5 : 72656874;
  6F6 : 65687420;
  6F7 : 6D616E20;
  6F8 : 666F2065;
  6F9 : 65687420;
  6FA : 706F6320;
  6FB : 67697279;
  6FC : 68207468;
  6FD : 65646C6F;
  6FE : 6F6E2072;
  6FF : 68742072;
  700 : 616E2065;
  701 : 2073656D;
  702 : 6920666F;
  703 : 63207374;
  704 : 72746E6F;
  705 : 74756269;
  706 : 2073726F;
  707 : 2079616D;
  708 : 75206562;
  709 : 20646573;
  70A : 200A6F74;
  70B : 6E652020;
  70C : 73726F64;
  70D : 726F2065;
  70E : 6F727020;
  70F : 65746F6D;
  710 : 6F727020;
  711 : 74637564;
  712 : 65642073;
  713 : 65766972;
  714 : 72662064;
  715 : 74206D6F;
  716 : 20736968;
  717 : 74666F73;
  718 : 65726177;
  719 : 74697720;
  71A : 74756F68;
  71B : 65707320;
  71C : 69666963;
  71D : 72702063;
  71E : 20726F69;
  71F : 74697277;
  720 : 0A6E6574;
  721 : 70202020;
  722 : 696D7265;
  723 : 6F697373;
  724 : 0A0A2E6E;
  725 : 53494854;
  726 : 464F5320;
  727 : 52415754;
  728 : 53492045;
  729 : 4F525020;
  72A : 45444956;
  72B : 59422044;
  72C : 45485420;
  72D : 504F4320;
  72E : 47495259;
  72F : 48205448;
  730 : 45444C4F;
  731 : 41205352;
  732 : 4320444E;
  733 : 52544E4F;
  734 : 54554249;
  735 : 2053524F;
  736 : 20534122;
  737 : 20225349;
  738 : 20444E41;
  739 : 20594E41;
  73A : 52505845;
  73B : 0A535345;
  73C : 4920524F;
  73D : 494C504D;
  73E : 57204445;
  73F : 41525241;
  740 : 4549544E;
  741 : 49202C53;
  742 : 554C434E;
  743 : 474E4944;
  744 : 5542202C;
  745 : 4F4E2054;
  746 : 494C2054;
  747 : 4554494D;
  748 : 4F542044;
  749 : 4854202C;
  74A : 4D492045;
  74B : 45494C50;
  74C : 41572044;
  74D : 4E415252;
  74E : 53454954;
  74F : 0A464F20;
  750 : 4352454D;
  751 : 544E4148;
  752 : 4C494241;
  753 : 20595449;
  754 : 20444E41;
  755 : 4E544946;
  756 : 20535345;
  757 : 20524F46;
  758 : 41502041;
  759 : 43495452;
  75A : 52414C55;
  75B : 52555020;
  75C : 45534F50;
  75D : 45524120;
  75E : 53494420;
  75F : 49414C43;
  760 : 2E44454D;
  761 : 204E4920;
  762 : 45204F4E;
  763 : 544E4556;
  764 : 41485320;
  765 : 54204C4C;
  766 : 430A4548;
  767 : 5259504F;
  768 : 54484749;
  769 : 4C4F4820;
  76A : 20524544;
  76B : 4320524F;
  76C : 52544E4F;
  76D : 54554249;
  76E : 2053524F;
  76F : 4C204542;
  770 : 4C424149;
  771 : 4F462045;
  772 : 4E412052;
  773 : 49442059;
  774 : 54434552;
  775 : 4E49202C;
  776 : 45524944;
  777 : 202C5443;
  778 : 49434E49;
  779 : 544E4544;
  77A : 202C4C41;
  77B : 43455053;
  77C : 2C4C4149;
  77D : 4558450A;
  77E : 414C504D;
  77F : 202C5952;
  780 : 4320524F;
  781 : 45534E4F;
  782 : 4E455551;
  783 : 4C414954;
  784 : 4D414420;
  785 : 53454741;
  786 : 4E492820;
  787 : 44554C43;
  788 : 2C474E49;
  789 : 54554220;
  78A : 544F4E20;
  78B : 4D494C20;
  78C : 44455449;
  78D : 2C4F5420;
  78E : 4F525020;
  78F : 45525543;
  790 : 544E454D;
  791 : 20464F20;
  792 : 53425553;
  793 : 55544954;
  794 : 470A4554;
  795 : 53444F4F;
  796 : 20524F20;
  797 : 56524553;
  798 : 53454349;
  799 : 4F4C203B;
  79A : 4F205353;
  79B : 53552046;
  79C : 44202C45;
  79D : 2C415441;
  79E : 20524F20;
  79F : 464F5250;
  7A0 : 3B535449;
  7A1 : 20524F20;
  7A2 : 49535542;
  7A3 : 5353454E;
  7A4 : 544E4920;
  7A5 : 55525245;
  7A6 : 4F495450;
  7A7 : 4820294E;
  7A8 : 5645574F;
  7A9 : 43205245;
  7AA : 45535541;
  7AB : 4E410A44;
  7AC : 4E4F2044;
  7AD : 594E4120;
  7AE : 45485420;
  7AF : 2059524F;
  7B0 : 4C20464F;
  7B1 : 49424149;
  7B2 : 5954494C;
  7B3 : 4857202C;
  7B4 : 45485445;
  7B5 : 4E492052;
  7B6 : 4E4F4320;
  7B7 : 43415254;
  7B8 : 53202C54;
  7B9 : 43495254;
  7BA : 494C2054;
  7BB : 4C494241;
  7BC : 2C595449;
  7BD : 20524F20;
  7BE : 54524F54;
  7BF : 4E492820;
  7C0 : 44554C43;
  7C1 : 0A474E49;
  7C2 : 4C47454E;
  7C3 : 4E454749;
  7C4 : 4F204543;
  7C5 : 544F2052;
  7C6 : 57524548;
  7C7 : 29455349;
  7C8 : 49524120;
  7C9 : 474E4953;
  7CA : 204E4920;
  7CB : 20594E41;
  7CC : 20594157;
  7CD : 2054554F;
  7CE : 5420464F;
  7CF : 55204548;
  7D0 : 4F204553;
  7D1 : 48542046;
  7D2 : 53205349;
  7D3 : 5754464F;
  7D4 : 2C455241;
  7D5 : 45564520;
  7D6 : 4649204E;
  7D7 : 56444120;
  7D8 : 44455349;
  7D9 : 20464F0A;
  7DA : 20454854;
  7DB : 53534F50;
  7DC : 4C494249;
  7DD : 20595449;
  7DE : 5320464F;
  7DF : 20484355;
  7E0 : 414D4144;
  7E1 : 0A2E4547;
  7E2 : 4450530A;
  7E3 : 694C2D58;
  7E4 : 736E6563;
  7E5 : 64492D65;
  7E6 : 69746E65;
  7E7 : 72656966;
  7E8 : 5342203A;
  7E9 : 2D332D44;
  7EA : 75616C43;
  7EB : 0A0A6573;
  7EC : 00000000;
  7ED : 71000AD0;
  7EE : 71000C00;
  7EF : 71000C00;
  7F0 : 71000C00;
  7F1 : 71000AE0;
  7F2 : 71000C00;
  7F3 : 71000C00;
  7F4 : 71000C00;
  7F5 : 71000AF0;
  7F6 : 71000C00;
  7F7 : 71000C00;
  7F8 : 71000C00;
  7F9 : 71000C00;
  7FA : 71000B00;
  7FB : 71000B10;
  7FC : 71000B20;
  7FD : 71000B30;
  7FE : 71000B40;
  7FF : 71000B50;
  800 : 71000B60;
  801 : 71000B70;
  802 : 71000B80;
  803 : 71000B90;
  804 : 71000BA0;
  805 : 71000BB0;
  806 : 71000BC0;
  807 : 71000BD0;
  808 : 71000BE0;
  809 : 71000BF0;
  80A : 71000A50;
  80B : 71000A30;
  80C : 71000A40;
  80D : 71000A60;
  80E : 71000A70;
  80F : 71000A80;
  810 : 71000A90;
  811 : 71000AA0;
  812 : 71000AB0;
  813 : 71000C00;
  814 : 71000C00;
  815 : 71000AC0;
  816 : 4F454E3C;
  817 : 32335652;
  818 : 4554522D;
  819 : 0000203E;
  81A : 7570635B;
  81B : 00007C31;
  81C : 7570635B;
  81D : 00007C30;
  81E : 00205D4D;
  81F : 00205D55;
  820 : 74736E49;
  821 : 74637572;
  822 : 206E6F69;
  823 : 65636361;
  824 : 66207373;
  825 : 746C7561;
  826 : 00000000;
  827 : 656C6C49;
  828 : 206C6167;
  829 : 74736E69;
  82A : 74637572;
  82B : 006E6F69;
  82C : 74736E49;
  82D : 74637572;
  82E : 206E6F69;
  82F : 72646461;
  830 : 20737365;
  831 : 6173696D;
  832 : 6E67696C;
  833 : 00006465;
  834 : 69766E45;
  835 : 6D6E6F72;
  836 : 20746E65;
  837 : 61657262;
  838 : 696F706B;
  839 : 0000746E;
  83A : 64616F4C;
  83B : 64646120;
  83C : 73736572;
  83D : 73696D20;
  83E : 67696C61;
  83F : 0064656E;
  840 : 64616F4C;
  841 : 63636120;
  842 : 20737365;
  843 : 6C756166;
  844 : 00000074;
  845 : 726F7453;
  846 : 64612065;
  847 : 73657264;
  848 : 696D2073;
  849 : 696C6173;
  84A : 64656E67;
  84B : 00000000;
  84C : 726F7453;
  84D : 63612065;
  84E : 73736563;
  84F : 75616620;
  850 : 0000746C;
  851 : 69766E45;
  852 : 6D6E6F72;
  853 : 20746E65;
  854 : 6C6C6163;
  855 : 6F726620;
  856 : 2D55206D;
  857 : 65646F6D;
  858 : 00000000;
  859 : 69766E45;
  85A : 6D6E6F72;
  85B : 20746E65;
  85C : 6C6C6163;
  85D : 6F726620;
  85E : 2D4D206D;
  85F : 65646F6D;
  860 : 00000000;
  861 : 6863614D;
  862 : 20656E69;
  863 : 74666F73;
  864 : 65726177;
  865 : 51524920;
  866 : 00000000;
  867 : 6863614D;
  868 : 20656E69;
  869 : 656D6974;
  86A : 52492072;
  86B : 00000051;
  86C : 6863614D;
  86D : 20656E69;
  86E : 65747865;
  86F : 6C616E72;
  870 : 51524920;
  871 : 00000000;
  872 : 74736146;
  873 : 51524920;
  874 : 00000020;
  875 : 6E6B6E55;
  876 : 206E776F;
  877 : 70617274;
  878 : 75616320;
  879 : 00206573;
  87A : 50204020;
  87B : 00003D43;
  87C : 544D202C;
  87D : 54534E49;
  87E : 0000003D;
  87F : 544D202C;
  880 : 3D4C4156;
  881 : 00000000;
  882 : 73694420;
  883 : 696C6261;
  884 : 4920676E;
  885 : 73205152;
  886 : 6372756F;
  887 : 00000065;
  888 : 46212120;
  889 : 4C415441;
  88A : 43584520;
  88B : 49545045;
  88C : 21214E4F;
  88D : 6C614820;
  88E : 676E6974;
  88F : 55504320;
  890 : 4E2F3C20;
  891 : 56524F45;
  892 : 522D3233;
  893 : 0A3E4554;
  894 : 00000000;
  895 : 4E2F3C20;
  896 : 56524F45;
  897 : 522D3233;
  898 : 0A3E4554;
  899 : 00000000;
  89A : 33323130;
  89B : 37363534;
  89C : 42413938;
  89D : 46454443;
  89E : 00000000;
  89F : 71000E8C;
  8A0 : 71000E64;
  8A1 : 71000E78;
  8A2 : 71000EA0;
  8A3 : 71000EB4;
  8A4 : 71000EC8;
  8A5 : 71000EDC;
  8A6 : 71000EF0;
  8A7 : 71000F04;
  8A8 : 71000F88;
  8A9 : 71000F88;
  8AA : 71000F18;
  8AB : 20202000;
  8AC : 20202020;
  8AD : 28282020;
  8AE : 20282828;
  8AF : 20202020;
  8B0 : 20202020;
  8B1 : 20202020;
  8B2 : 20202020;
  8B3 : 10108820;
  8B4 : 10101010;
  8B5 : 10101010;
  8B6 : 10101010;
  8B7 : 04040410;
  8B8 : 04040404;
  8B9 : 10040404;
  8BA : 10101010;
  8BB : 41411010;
  8BC : 41414141;
  8BD : 01010101;
  8BE : 01010101;
  8BF : 01010101;
  8C0 : 01010101;
  8C1 : 01010101;
  8C2 : 10101010;
  8C3 : 42421010;
  8C4 : 42424242;
  8C5 : 02020202;
  8C6 : 02020202;
  8C7 : 02020202;
  8C8 : 02020202;
  8C9 : 02020202;
  8CA : 10101010;
  8CB : 00000020;
  8CC : 00000000;
  8CD : 00000000;
  8CE : 00000000;
  8CF : 00000000;
  8D0 : 00000000;
  8D1 : 00000000;
  8D2 : 00000000;
  8D3 : 00000000;
  8D4 : 00000000;
  8D5 : 00000000;
  8D6 : 00000000;
  8D7 : 00000000;
  8D8 : 00000000;
  8D9 : 00000000;
  8DA : 00000000;
  8DB : 00000000;
  8DC : 00000000;
  8DD : 00000000;
  8DE : 00000000;
  8DF : 00000000;
  8E0 : 00000000;
  8E1 : 00000000;
  8E2 : 00000000;
  8E3 : 00000000;
  8E4 : 00000000;
  8E5 : 00000000;
  8E6 : 00000000;
  8E7 : 00000000;
  8E8 : 00000000;
  8E9 : 00000000;
  8EA : 00000000;
  8EB : 00000000;
END;
