WIDTH=32;
DEPTH=3704;

ADDRESS_RADIX=HEX;
DATA_RADIX=HEX;

CONTENT BEGIN
  00 : 0F004F97;
  01 : 000F8F93;
  02 : 0F004117;
  03 : FF810113;
  04 : 00C000EF;
  05 : 00050F93;
  06 : 0000006F;
  07 : FE010113;
  08 : 00112E23;
  09 : 00812C23;
  0A : 02010413;
  0B : FE042623;
  0C : FE042423;
  0D : FE042223;
  0E : 7F1010EF;
  0F : 00000613;
  10 : 0001C7B7;
  11 : 20078593;
  12 : FFF50537;
  13 : 0F0000EF;
  14 : 6F0020EF;
  15 : FEA42623;
  16 : 025010EF;
  17 : 069000EF;
  18 : 710037B7;
  19 : 91078593;
  1A : FFF50537;
  1B : 244000EF;
  1C : FEC42603;
  1D : 710037B7;
  1E : 92878593;
  1F : FFF50537;
  20 : 584000EF;
  21 : 3E800593;
  22 : 03B9B7B7;
  23 : CA078513;
  24 : 5E0000EF;
  25 : FC5FF06F;
  26 : FE010113;
  27 : 00812E23;
  28 : 02010413;
  29 : FEA42623;
  2A : FEC42783;
  2B : 00178713;
  2C : 710047B7;
  2D : 8DC78793;
  2E : 00F707B3;
  2F : 0007C783;
  30 : 00078513;
  31 : 01C12403;
  32 : 02010113;
  33 : 00008067;
  34 : FE010113;
  35 : 00812E23;
  36 : 02010413;
  37 : FEA42623;
  38 : FEC42703;
  39 : FFF507B7;
  3A : 00F71E63;
  3B : FFFE07B7;
  3C : 0087A783;
  3D : 00078713;
  3E : 000207B7;
  3F : 00F777B3;
  40 : 02C0006F;
  41 : FEC42703;
  42 : FFF607B7;
  43 : 00F71E63;
  44 : FFFE07B7;
  45 : 0087A783;
  46 : 00078713;
  47 : 020007B7;
  48 : 00F777B3;
  49 : 0080006F;
  4A : 00000793;
  4B : 00078513;
  4C : 01C12403;
  4D : 02010113;
  4E : 00008067;
  4F : FD010113;
  50 : 02112623;
  51 : 02812423;
  52 : 03010413;
  53 : FCA42E23;
  54 : FCB42C23;
  55 : FCC42A23;
  56 : FE042623;
  57 : FE042423;
  58 : FDC42783;
  59 : 0007A023;
  5A : FFFE07B7;
  5B : 0007A783;
  5C : FEF42223;
  5D : FD842783;
  5E : 00179793;
  5F : 00078593;
  60 : FE442503;
  61 : 6A0020EF;
  62 : 00050793;
  63 : FEF42423;
  64 : 0440006F;
  65 : FEC42703;
  66 : 00200793;
  67 : 00F70863;
  68 : FEC42703;
  69 : 00400793;
  6A : 00F71A63;
  6B : FE842783;
  6C : 0037D793;
  6D : FEF42423;
  6E : 0100006F;
  6F : FE842783;
  70 : 0017D793;
  71 : FEF42423;
  72 : FEC42783;
  73 : 00178793;
  74 : FEF42623;
  75 : FE842703;
  76 : 3FE00793;
  77 : FAE7ECE3;
  78 : FE042023;
  79 : FE042783;
  7A : 0017E793;
  7B : FEF42023;
  7C : FEC42783;
  7D : 00379793;
  7E : 0187F793;
  7F : FE042703;
  80 : 00F767B3;
  81 : FEF42023;
  82 : FE842783;
  83 : FFF78793;
  84 : 00679713;
  85 : 000107B7;
  86 : FFF78793;
  87 : 00F777B3;
  88 : FE042703;
  89 : 00F767B3;
  8A : FEF42023;
  8B : FD442703;
  8C : 00F007B7;
  8D : 00F777B3;
  8E : FE042703;
  8F : 00F767B3;
  90 : FEF42023;
  91 : FDC42783;
  92 : FE042703;
  93 : 00E7A023;
  94 : 00000013;
  95 : 02C12083;
  96 : 02812403;
  97 : 03010113;
  98 : 00008067;
  99 : FE010113;
  9A : 00812E23;
  9B : 02010413;
  9C : FEA42623;
  9D : 00058793;
  9E : FEF405A3;
  9F : 00000013;
  A0 : FEC42783;
  A1 : 0007A703;
  A2 : 000807B7;
  A3 : 00F777B3;
  A4 : FE0788E3;
  A5 : FEB44703;
  A6 : FEC42783;
  A7 : 00E7A223;
  A8 : 00000013;
  A9 : 01C12403;
  AA : 02010113;
  AB : 00008067;
  AC : FD010113;
  AD : 02112623;
  AE : 02812423;
  AF : 03010413;
  B0 : FCA42E23;
  B1 : FCB42C23;
  B2 : FE0407A3;
  B3 : 02C0006F;
  B4 : FEF44703;
  B5 : 00A00793;
  B6 : 00F71863;
  B7 : 00D00593;
  B8 : FDC42503;
  B9 : F81FF0EF;
  BA : FEF44783;
  BB : 00078593;
  BC : FDC42503;
  BD : F71FF0EF;
  BE : FD842783;
  BF : 00178713;
  C0 : FCE42C23;
  C1 : 0007C783;
  C2 : FEF407A3;
  C3 : FEF44783;
  C4 : FC0790E3;
  C5 : 00000013;
  C6 : 00000013;
  C7 : 02C12083;
  C8 : 02812403;
  C9 : 03010113;
  CA : 00008067;
  CB : FB010113;
  CC : 04112623;
  CD : 04812423;
  CE : 05010413;
  CF : FAA42E23;
  D0 : FAB42C23;
  D1 : FAC42A23;
  D2 : FE0403A3;
  D3 : FE042623;
  D4 : FE042423;
  D5 : FE042423;
  D6 : 0200006F;
  D7 : FE842783;
  D8 : FF078793;
  D9 : 008787B3;
  DA : FC078823;
  DB : FE842783;
  DC : 00178793;
  DD : FEF42423;
  DE : FE842703;
  DF : 02300793;
  E0 : FCE7FEE3;
  E1 : 24C0006F;
  E2 : FE744703;
  E3 : 02500793;
  E4 : 20F71C63;
  E5 : FB842783;
  E6 : 00178713;
  E7 : FAE42C23;
  E8 : 0007C783;
  E9 : FEF40323;
  EA : FE644783;
  EB : 00078513;
  EC : CE9FF0EF;
  ED : 00050793;
  EE : 0037F713;
  EF : 00100793;
  F0 : 00F71863;
  F1 : FE644783;
  F2 : 02078793;
  F3 : 0080006F;
  F4 : FE644783;
  F5 : FEF403A3;
  F6 : FE744783;
  F7 : 02500713;
  F8 : 18E78863;
  F9 : 02500713;
  FA : 18E7CE63;
  FB : 07800713;
  FC : 18F74A63;
  FD : 06300713;
  FE : 18E7C663;
  FF : F9D78793;
  100 : 01500713;
  101 : 18F76063;
  102 : 00279713;
  103 : 710037B7;
  104 : 94C78793;
  105 : 00F707B3;
  106 : 0007A783;
  107 : 00078067;
  108 : FB442783;
  109 : 00478713;
  10A : FAE42A23;
  10B : 0007A783;
  10C : 00078593;
  10D : FBC42503;
  10E : E79FF0EF;
  10F : 1940006F;
  110 : FB442783;
  111 : 00478713;
  112 : FAE42A23;
  113 : 0007A783;
  114 : 0FF7F793;
  115 : 00078593;
  116 : FBC42503;
  117 : E09FF0EF;
  118 : 1700006F;
  119 : FB442783;
  11A : 00478713;
  11B : FAE42A23;
  11C : 0007A783;
  11D : FEF42623;
  11E : FEC42783;
  11F : 0007DE63;
  120 : FEC42783;
  121 : 40F007B3;
  122 : FEF42623;
  123 : 02D00593;
  124 : FBC42503;
  125 : DD1FF0EF;
  126 : FEC42703;
  127 : FC040793;
  128 : 00A00613;
  129 : 00070593;
  12A : 00078513;
  12B : 27C000EF;
  12C : FC040793;
  12D : 00078593;
  12E : FBC42503;
  12F : DF5FF0EF;
  130 : 1100006F;
  131 : FB442783;
  132 : 00478713;
  133 : FAE42A23;
  134 : 0007A703;
  135 : FC040793;
  136 : 00A00613;
  137 : 00070593;
  138 : 00078513;
  139 : 244000EF;
  13A : FC040793;
  13B : 00078593;
  13C : FBC42503;
  13D : DBDFF0EF;
  13E : 0D80006F;
  13F : FB442783;
  140 : 00478713;
  141 : FAE42A23;
  142 : 0007A703;
  143 : FC040793;
  144 : 01000613;
  145 : 00070593;
  146 : 00078513;
  147 : 20C000EF;
  148 : FC040793;
  149 : 00078513;
  14A : 3CC020EF;
  14B : 00050713;
  14C : 00800793;
  14D : 40E787B3;
  14E : FEF42423;
  14F : 0100006F;
  150 : 03000593;
  151 : FBC42503;
  152 : D1DFF0EF;
  153 : FE842783;
  154 : FFF78713;
  155 : FEE42423;
  156 : FE0794E3;
  157 : FC040793;
  158 : 00078593;
  159 : FBC42503;
  15A : D49FF0EF;
  15B : 0640006F;
  15C : FE744783;
  15D : 00078593;
  15E : FBC42503;
  15F : CE9FF0EF;
  160 : 0500006F;
  161 : 02500593;
  162 : FBC42503;
  163 : CD9FF0EF;
  164 : FE744783;
  165 : 00078593;
  166 : FBC42503;
  167 : CC9FF0EF;
  168 : 00000013;
  169 : 02C0006F;
  16A : FE744703;
  16B : 00A00793;
  16C : 00F71863;
  16D : 00D00593;
  16E : FBC42503;
  16F : CA9FF0EF;
  170 : FE744783;
  171 : 00078593;
  172 : FBC42503;
  173 : C99FF0EF;
  174 : FB842783;
  175 : 00178713;
  176 : FAE42C23;
  177 : 0007C783;
  178 : FEF403A3;
  179 : FE744783;
  17A : DA0790E3;
  17B : 00000013;
  17C : 00000013;
  17D : 04C12083;
  17E : 04812403;
  17F : 05010113;
  180 : 00008067;
  181 : FB010113;
  182 : 02112623;
  183 : 02812423;
  184 : 03010413;
  185 : FCA42E23;
  186 : FCB42C23;
  187 : 00C42423;
  188 : 00D42623;
  189 : 00E42823;
  18A : 00F42A23;
  18B : 01042C23;
  18C : 01142E23;
  18D : 02040793;
  18E : FCF42A23;
  18F : FD442783;
  190 : FE878793;
  191 : FEF42623;
  192 : FEC42783;
  193 : 00078613;
  194 : FD842583;
  195 : FDC42503;
  196 : CD5FF0EF;
  197 : 00000013;
  198 : 02C12083;
  199 : 02812403;
  19A : 05010113;
  19B : 00008067;
  19C : FC010113;
  19D : 02112E23;
  19E : 02812C23;
  19F : 03212A23;
  1A0 : 03312823;
  1A1 : 04010413;
  1A2 : FCA42623;
  1A3 : FCB42423;
  1A4 : FCC42583;
  1A5 : 00A5D593;
  1A6 : FEB42623;
  1A7 : FEC42583;
  1A8 : 00058713;
  1A9 : 00000793;
  1AA : FC842583;
  1AB : 00058613;
  1AC : 00000693;
  1AD : 00070513;
  1AE : 00078593;
  1AF : 0D4020EF;
  1B0 : 00050713;
  1B1 : 00058793;
  1B2 : FEE42023;
  1B3 : FEF42223;
  1B4 : FE442783;
  1B5 : 01C79793;
  1B6 : FE042703;
  1B7 : 00475913;
  1B8 : 0127E933;
  1B9 : FE442783;
  1BA : 0047D993;
  1BB : FD242E23;
  1BC : FDC42783;
  1BD : 00078A63;
  1BE : 00001863;
  1BF : FFF78793;
  1C0 : 00000013;
  1C1 : FF1FF06F;
  1C2 : FCF42E23;
  1C3 : 00000013;
  1C4 : 03C12083;
  1C5 : 03812403;
  1C6 : 03412903;
  1C7 : 03012983;
  1C8 : 04010113;
  1C9 : 00008067;
  1CA : FA010113;
  1CB : 04112E23;
  1CC : 04812C23;
  1CD : 06010413;
  1CE : FAA42623;
  1CF : FAB42423;
  1D0 : FAC42223;
  1D1 : 710037B7;
  1D2 : 9A478793;
  1D3 : 0007A603;
  1D4 : 0047A683;
  1D5 : 0087A703;
  1D6 : 00C7A783;
  1D7 : FCC42C23;
  1D8 : FCD42E23;
  1D9 : FEE42023;
  1DA : FEF42223;
  1DB : FE042623;
  1DC : FE042423;
  1DD : FE042423;
  1DE : 0200006F;
  1DF : FE842783;
  1E0 : FF078793;
  1E1 : 008787B3;
  1E2 : FC078223;
  1E3 : FE842783;
  1E4 : 00178793;
  1E5 : FEF42423;
  1E6 : FE842703;
  1E7 : 02300793;
  1E8 : FCE7FEE3;
  1E9 : FA442703;
  1EA : 00100793;
  1EB : 00E7F863;
  1EC : FA442703;
  1ED : 01000793;
  1EE : 00E7F863;
  1EF : FAC42783;
  1F0 : 00078023;
  1F1 : 0F00006F;
  1F2 : FE042423;
  1F3 : 0200006F;
  1F4 : FE842783;
  1F5 : FF078793;
  1F6 : 008787B3;
  1F7 : FC078223;
  1F8 : FE842783;
  1F9 : 00178793;
  1FA : FEF42423;
  1FB : FE842703;
  1FC : 02300793;
  1FD : FCE7FEE3;
  1FE : FB440793;
  1FF : 02378793;
  200 : FEF42623;
  201 : FEC42783;
  202 : FFF78793;
  203 : FEF42623;
  204 : FA842783;
  205 : FA442583;
  206 : 00078513;
  207 : 050020EF;
  208 : 00050793;
  209 : FF078793;
  20A : 008787B3;
  20B : FE87C703;
  20C : FEC42783;
  20D : 00E78023;
  20E : FA442583;
  20F : FA842503;
  210 : 7E5010EF;
  211 : 00050793;
  212 : FAF42423;
  213 : FA842783;
  214 : FA079AE3;
  215 : FE042423;
  216 : 0480006F;
  217 : FE842783;
  218 : FF078793;
  219 : 008787B3;
  21A : FC47C783;
  21B : 02078463;
  21C : FE842783;
  21D : FF078793;
  21E : 008787B3;
  21F : FC47C703;
  220 : FAC42783;
  221 : 00E78023;
  222 : FAC42783;
  223 : 00178793;
  224 : FAF42623;
  225 : FE842783;
  226 : 00178793;
  227 : FEF42423;
  228 : FE842703;
  229 : 02300793;
  22A : FAE7FAE3;
  22B : FAC42783;
  22C : 00078023;
  22D : 05C12083;
  22E : 05812403;
  22F : 06010113;
  230 : 00008067;
  231 : F7010113;
  232 : 08112623;
  233 : 08812423;
  234 : 09010413;
  235 : FFF50537;
  236 : FF8FF0EF;
  237 : 00050793;
  238 : 00079463;
  239 : 6890006F;
  23A : FE042423;
  23B : FE042623;
  23C : 710037B7;
  23D : 9B478593;
  23E : FFF50537;
  23F : D09FF0EF;
  240 : 710037B7;
  241 : 9E078593;
  242 : FFF50537;
  243 : CF9FF0EF;
  244 : BC0027F3;
  245 : FCF42423;
  246 : FC842783;
  247 : 0007DC63;
  248 : 710037B7;
  249 : 9F878593;
  24A : FFF50537;
  24B : CD9FF0EF;
  24C : 0140006F;
  24D : 710037B7;
  24E : A0078593;
  24F : FFF50537;
  250 : CC5FF0EF;
  251 : FFFE07B7;
  252 : 0047A783;
  253 : 0107D793;
  254 : 00F7F793;
  255 : 00078613;
  256 : 710037B7;
  257 : A0478593;
  258 : FFF50537;
  259 : CA1FF0EF;
  25A : FFFE07B7;
  25B : 0007A783;
  25C : 00078613;
  25D : 710037B7;
  25E : A2078593;
  25F : FFF50537;
  260 : C85FF0EF;
  261 : 710037B7;
  262 : A3C78593;
  263 : FFF50537;
  264 : C75FF0EF;
  265 : FFFE07B7;
  266 : 0087A783;
  267 : 0107F793;
  268 : 00078C63;
  269 : 710037B7;
  26A : A5478593;
  26B : FFF50537;
  26C : C55FF0EF;
  26D : 0140006F;
  26E : 710037B7;
  26F : A5C78593;
  270 : FFF50537;
  271 : C41FF0EF;
  272 : FFFE07B7;
  273 : 0087A703;
  274 : 000017B7;
  275 : 80078793;
  276 : 00F777B3;
  277 : 00078C63;
  278 : 710037B7;
  279 : A6878593;
  27A : FFF50537;
  27B : C19FF0EF;
  27C : 0140006F;
  27D : 710037B7;
  27E : A7C78593;
  27F : FFF50537;
  280 : C05FF0EF;
  281 : F14027F3;
  282 : FAF42A23;
  283 : FB442603;
  284 : F12027F3;
  285 : FAF42C23;
  286 : FB842683;
  287 : F13027F3;
  288 : FAF42E23;
  289 : FBC42783;
  28A : 00078713;
  28B : 710037B7;
  28C : A8078593;
  28D : FFF50537;
  28E : BCDFF0EF;
  28F : 710037B7;
  290 : AD078593;
  291 : FFF50537;
  292 : BBDFF0EF;
  293 : F13027F3;
  294 : FCF42023;
  295 : FC042783;
  296 : 00078513;
  297 : 525000EF;
  298 : 710037B7;
  299 : AD478593;
  29A : FFF50537;
  29B : B99FF0EF;
  29C : 710037B7;
  29D : AD878593;
  29E : FFF50537;
  29F : B89FF0EF;
  2A0 : 301027F3;
  2A1 : FCF42223;
  2A2 : FC442783;
  2A3 : FEF42423;
  2A4 : FE842783;
  2A5 : 01E7D793;
  2A6 : FEF42423;
  2A7 : FE842703;
  2A8 : 00100793;
  2A9 : 00F71C63;
  2AA : 710037B7;
  2AB : AF078593;
  2AC : FFF50537;
  2AD : B51FF0EF;
  2AE : 0140006F;
  2AF : 710037B7;
  2B0 : AFC78593;
  2B1 : FFF50537;
  2B2 : B3DFF0EF;
  2B3 : 710037B7;
  2B4 : B0478593;
  2B5 : FFF50537;
  2B6 : B2DFF0EF;
  2B7 : 301027F3;
  2B8 : FAF42823;
  2B9 : FB042783;
  2BA : FEF42423;
  2BB : FE042623;
  2BC : 0540006F;
  2BD : FEC42783;
  2BE : 00100713;
  2BF : 00F717B3;
  2C0 : 00078713;
  2C1 : FE842783;
  2C2 : 00F777B3;
  2C3 : 02078663;
  2C4 : FEC42783;
  2C5 : 0FF7F793;
  2C6 : 04178793;
  2C7 : 0FF7F793;
  2C8 : 00078593;
  2C9 : FFF50537;
  2CA : F3CFF0EF;
  2CB : 02000593;
  2CC : FFF50537;
  2CD : F30FF0EF;
  2CE : FEC42783;
  2CF : 00178793;
  2D0 : FEF42623;
  2D1 : FEC42703;
  2D2 : 01900793;
  2D3 : FAE7D4E3;
  2D4 : FC0027F3;
  2D5 : FAF42623;
  2D6 : FAC42783;
  2D7 : FEF42423;
  2D8 : FE842783;
  2D9 : 4007F793;
  2DA : 00078A63;
  2DB : 710037B7;
  2DC : B1C78593;
  2DD : FFF50537;
  2DE : A8DFF0EF;
  2DF : FE842703;
  2E0 : 000017B7;
  2E1 : 80078793;
  2E2 : 00F777B3;
  2E3 : 00078A63;
  2E4 : 710037B7;
  2E5 : B2478593;
  2E6 : FFF50537;
  2E7 : A69FF0EF;
  2E8 : FE842783;
  2E9 : 1007F793;
  2EA : 00078A63;
  2EB : 710037B7;
  2EC : B2C78593;
  2ED : FFF50537;
  2EE : A4DFF0EF;
  2EF : FE842703;
  2F0 : 020007B7;
  2F1 : 00F777B3;
  2F2 : 00078A63;
  2F3 : 710037B7;
  2F4 : B3478593;
  2F5 : FFF50537;
  2F6 : A2DFF0EF;
  2F7 : FE842703;
  2F8 : 040007B7;
  2F9 : 00F777B3;
  2FA : 00078A63;
  2FB : 710037B7;
  2FC : B3C78593;
  2FD : FFF50537;
  2FE : A0DFF0EF;
  2FF : FE842703;
  300 : 080007B7;
  301 : 00F777B3;
  302 : 00078A63;
  303 : 710037B7;
  304 : B4478593;
  305 : FFF50537;
  306 : 9EDFF0EF;
  307 : FE842703;
  308 : 004007B7;
  309 : 00F777B3;
  30A : 00078A63;
  30B : 710037B7;
  30C : B4C78593;
  30D : FFF50537;
  30E : 9CDFF0EF;
  30F : FE842703;
  310 : 008007B7;
  311 : 00F777B3;
  312 : 00078A63;
  313 : 710037B7;
  314 : B5478593;
  315 : FFF50537;
  316 : 9ADFF0EF;
  317 : FE842703;
  318 : 000107B7;
  319 : 00F777B3;
  31A : 00078A63;
  31B : 710037B7;
  31C : B5C78593;
  31D : FFF50537;
  31E : 98DFF0EF;
  31F : FE842703;
  320 : 000207B7;
  321 : 00F777B3;
  322 : 00078A63;
  323 : 710037B7;
  324 : B6478593;
  325 : FFF50537;
  326 : 96DFF0EF;
  327 : FE842703;
  328 : 000017B7;
  329 : 00F777B3;
  32A : 00078A63;
  32B : 710037B7;
  32C : B6C78593;
  32D : FFF50537;
  32E : 94DFF0EF;
  32F : FE842703;
  330 : 010007B7;
  331 : 00F777B3;
  332 : 00078A63;
  333 : 710037B7;
  334 : B7478593;
  335 : FFF50537;
  336 : 92DFF0EF;
  337 : FE842783;
  338 : 0207F793;
  339 : 00078A63;
  33A : 710037B7;
  33B : B7C78593;
  33C : FFF50537;
  33D : 911FF0EF;
  33E : FE842783;
  33F : 0807F793;
  340 : 00078A63;
  341 : 710037B7;
  342 : B8478593;
  343 : FFF50537;
  344 : 8F5FF0EF;
  345 : FE842783;
  346 : 0407F793;
  347 : 00078A63;
  348 : 710037B7;
  349 : B8C78593;
  34A : FFF50537;
  34B : 8D9FF0EF;
  34C : FE842783;
  34D : 0017F793;
  34E : 00078A63;
  34F : 710037B7;
  350 : B9478593;
  351 : FFF50537;
  352 : 8BDFF0EF;
  353 : FE842783;
  354 : 0027F793;
  355 : 00078A63;
  356 : 710037B7;
  357 : B9C78593;
  358 : FFF50537;
  359 : 8A1FF0EF;
  35A : FE842783;
  35B : 2007F793;
  35C : 00078A63;
  35D : 710037B7;
  35E : BA878593;
  35F : FFF50537;
  360 : 885FF0EF;
  361 : FE842703;
  362 : 000407B7;
  363 : 00F777B3;
  364 : 00078A63;
  365 : 710037B7;
  366 : BB078593;
  367 : FFF50537;
  368 : 865FF0EF;
  369 : FE842703;
  36A : 000027B7;
  36B : 00F777B3;
  36C : 00078A63;
  36D : 710037B7;
  36E : BB878593;
  36F : FFF50537;
  370 : 845FF0EF;
  371 : FE842703;
  372 : 000047B7;
  373 : 00F777B3;
  374 : 00078A63;
  375 : 710037B7;
  376 : BC078593;
  377 : FFF50537;
  378 : 825FF0EF;
  379 : FE842703;
  37A : 000087B7;
  37B : 00F777B3;
  37C : 00078A63;
  37D : 710037B7;
  37E : BC878593;
  37F : FFF50537;
  380 : 805FF0EF;
  381 : FE842703;
  382 : 002007B7;
  383 : 00F777B3;
  384 : 00078A63;
  385 : 710037B7;
  386 : BD078593;
  387 : FFF50537;
  388 : FE4FF0EF;
  389 : FE842703;
  38A : 001007B7;
  38B : 00F777B3;
  38C : 00078A63;
  38D : 710037B7;
  38E : BD878593;
  38F : FFF50537;
  390 : FC4FF0EF;
  391 : FE842703;
  392 : 000807B7;
  393 : 00F777B3;
  394 : 00078A63;
  395 : 710037B7;
  396 : BE078593;
  397 : FFF50537;
  398 : FA4FF0EF;
  399 : FE842783;
  39A : 0107F793;
  39B : 00078A63;
  39C : 710037B7;
  39D : BE878593;
  39E : FFF50537;
  39F : F88FF0EF;
  3A0 : FE842783;
  3A1 : 0047F793;
  3A2 : 00078A63;
  3A3 : 710037B7;
  3A4 : BF078593;
  3A5 : FFF50537;
  3A6 : F6CFF0EF;
  3A7 : FE842783;
  3A8 : 0087F793;
  3A9 : 00078A63;
  3AA : 710037B7;
  3AB : BF878593;
  3AC : FFF50537;
  3AD : F50FF0EF;
  3AE : BC0027F3;
  3AF : FAF42423;
  3B0 : FA842783;
  3B1 : FEF42423;
  3B2 : 710037B7;
  3B3 : C0078593;
  3B4 : FFF50537;
  3B5 : F30FF0EF;
  3B6 : FE842703;
  3B7 : 080007B7;
  3B8 : 00F777B3;
  3B9 : 00078A63;
  3BA : 710037B7;
  3BB : C1878593;
  3BC : FFF50537;
  3BD : F10FF0EF;
  3BE : FE842703;
  3BF : 200007B7;
  3C0 : 00F777B3;
  3C1 : 00078A63;
  3C2 : 710037B7;
  3C3 : C2478593;
  3C4 : FFF50537;
  3C5 : EF0FF0EF;
  3C6 : FE842703;
  3C7 : 400007B7;
  3C8 : 00F777B3;
  3C9 : 00078A63;
  3CA : 710037B7;
  3CB : C3078593;
  3CC : FFF50537;
  3CD : ED0FF0EF;
  3CE : FE842703;
  3CF : 100007B7;
  3D0 : 00F777B3;
  3D1 : 00078A63;
  3D2 : 710037B7;
  3D3 : C3C78593;
  3D4 : FFF50537;
  3D5 : EB0FF0EF;
  3D6 : 710037B7;
  3D7 : C4878593;
  3D8 : FFF50537;
  3D9 : EA0FF0EF;
  3DA : 261000EF;
  3DB : FEA42223;
  3DC : FE442783;
  3DD : 14078263;
  3DE : 3E1000EF;
  3DF : 00050793;
  3E0 : 00078693;
  3E1 : FE442603;
  3E2 : 710037B7;
  3E3 : C6078593;
  3E4 : FFF50537;
  3E5 : E70FF0EF;
  3E6 : FA042023;
  3E7 : FA042783;
  3E8 : F8F42E23;
  3E9 : F9C42783;
  3EA : 3A079073;
  3EB : 00000013;
  3EC : 3A0027F3;
  3ED : FAF42223;
  3EE : FA442783;
  3EF : 0FF7F793;
  3F0 : 00079A63;
  3F1 : 710037B7;
  3F2 : C8C78593;
  3F3 : FFF50537;
  3F4 : E34FF0EF;
  3F5 : 00800793;
  3F6 : F8F42A23;
  3F7 : F9442783;
  3F8 : F8F42823;
  3F9 : F9042783;
  3FA : 3A079073;
  3FB : 00000013;
  3FC : 3A0027F3;
  3FD : F8F42C23;
  3FE : F9842783;
  3FF : 0FF7F713;
  400 : 00800793;
  401 : 00F71A63;
  402 : 710037B7;
  403 : C9478593;
  404 : FFF50537;
  405 : DF0FF0EF;
  406 : 01000793;
  407 : F8F42423;
  408 : F8842783;
  409 : F8F42223;
  40A : F8442783;
  40B : 3A079073;
  40C : 00000013;
  40D : 3A0027F3;
  40E : F8F42623;
  40F : F8C42783;
  410 : 0FF7F713;
  411 : 01000793;
  412 : 00F71A63;
  413 : 710037B7;
  414 : C9C78593;
  415 : FFF50537;
  416 : DACFF0EF;
  417 : 01800793;
  418 : F6F42E23;
  419 : F7C42783;
  41A : F6F42C23;
  41B : F7842783;
  41C : 3A079073;
  41D : 00000013;
  41E : 3A0027F3;
  41F : F8F42023;
  420 : F8042783;
  421 : 0FF7F713;
  422 : 01800793;
  423 : 00F71A63;
  424 : 710037B7;
  425 : CA478593;
  426 : FFF50537;
  427 : D68FF0EF;
  428 : F6042A23;
  429 : F7442783;
  42A : F6F42823;
  42B : F7042783;
  42C : 3A079073;
  42D : 0140006F;
  42E : 710037B7;
  42F : CAC78593;
  430 : FFF50537;
  431 : D40FF0EF;
  432 : 710037B7;
  433 : CB478593;
  434 : FFF50537;
  435 : D30FF0EF;
  436 : 34D000EF;
  437 : FEA42023;
  438 : FE042783;
  439 : 02078463;
  43A : 63D000EF;
  43B : 00050793;
  43C : 00078693;
  43D : FE042603;
  43E : 710037B7;
  43F : CCC78593;
  440 : FFF50537;
  441 : D00FF0EF;
  442 : 0140006F;
  443 : 710037B7;
  444 : CAC78593;
  445 : FFF50537;
  446 : CECFF0EF;
  447 : 710037B7;
  448 : CEC78593;
  449 : FFF50537;
  44A : CDCFF0EF;
  44B : FFFE07B7;
  44C : 0047A783;
  44D : 0147D793;
  44E : 00F7F793;
  44F : FCF42E23;
  450 : FDC42703;
  451 : 00200793;
  452 : 04F70863;
  453 : FDC42703;
  454 : 00200793;
  455 : 04E7CC63;
  456 : FDC42783;
  457 : 00078A63;
  458 : FDC42703;
  459 : 00100793;
  45A : 00F70E63;
  45B : 0400006F;
  45C : 710037B7;
  45D : D0478593;
  45E : FFF50537;
  45F : C88FF0EF;
  460 : 0440006F;
  461 : 710037B7;
  462 : D2078593;
  463 : FFF50537;
  464 : C74FF0EF;
  465 : 0300006F;
  466 : 710037B7;
  467 : D4078593;
  468 : FFF50537;
  469 : C60FF0EF;
  46A : 01C0006F;
  46B : FDC42603;
  46C : 710037B7;
  46D : D6478593;
  46E : FFF50537;
  46F : C48FF0EF;
  470 : 00000013;
  471 : FFFE07B7;
  472 : 0047A783;
  473 : 0187D793;
  474 : 0FF7F793;
  475 : 00100713;
  476 : 00F717B3;
  477 : 00078613;
  478 : 710037B7;
  479 : D7478593;
  47A : FFF50537;
  47B : C18FF0EF;
  47C : 710037B7;
  47D : D9478593;
  47E : FFF50537;
  47F : C08FF0EF;
  480 : FFFE07B7;
  481 : 0087A783;
  482 : 0047F793;
  483 : 02078863;
  484 : FFFE07B7;
  485 : 0047A783;
  486 : 0FF7F793;
  487 : 00100713;
  488 : 00F717B3;
  489 : 00078613;
  48A : 710037B7;
  48B : DAC78593;
  48C : FFF50537;
  48D : BD0FF0EF;
  48E : 0140006F;
  48F : 710037B7;
  490 : DB878593;
  491 : FFF50537;
  492 : BBCFF0EF;
  493 : 710037B7;
  494 : DC078593;
  495 : FFF50537;
  496 : BACFF0EF;
  497 : FFFE07B7;
  498 : 0087A783;
  499 : 0087F793;
  49A : 02078A63;
  49B : FFFE07B7;
  49C : 0047A783;
  49D : 0087D793;
  49E : 0FF7F793;
  49F : 00100713;
  4A0 : 00F717B3;
  4A1 : 00078613;
  4A2 : 710037B7;
  4A3 : DAC78593;
  4A4 : FFF50537;
  4A5 : B70FF0EF;
  4A6 : 0140006F;
  4A7 : 710037B7;
  4A8 : DB878593;
  4A9 : FFF50537;
  4AA : B5CFF0EF;
  4AB : 710037B7;
  4AC : DD878593;
  4AD : FFF50537;
  4AE : B4CFF0EF;
  4AF : FFFE07B7;
  4B0 : 0087A783;
  4B1 : 0207F793;
  4B2 : 06078C63;
  4B3 : FFFE07B7;
  4B4 : 00C7A783;
  4B5 : 00F7F793;
  4B6 : FCF42C23;
  4B7 : FD842783;
  4B8 : 00100713;
  4B9 : 00F717B3;
  4BA : FCF42C23;
  4BB : FFFE07B7;
  4BC : 00C7A783;
  4BD : 0047D793;
  4BE : 00F7F793;
  4BF : FCF42A23;
  4C0 : FD442783;
  4C1 : 00100713;
  4C2 : 00F717B3;
  4C3 : FCF42A23;
  4C4 : FD842583;
  4C5 : FD442503;
  4C6 : 454010EF;
  4C7 : 00050793;
  4C8 : FD842703;
  4C9 : FD442683;
  4CA : 00078613;
  4CB : 710037B7;
  4CC : DF078593;
  4CD : FFF50537;
  4CE : ACCFF0EF;
  4CF : 0140006F;
  4D0 : 710037B7;
  4D1 : CAC78593;
  4D2 : FFF50537;
  4D3 : AB8FF0EF;
  4D4 : FFFE07B7;
  4D5 : 00C7A703;
  4D6 : 000107B7;
  4D7 : 00F777B3;
  4D8 : 00078C63;
  4D9 : 710037B7;
  4DA : E0478593;
  4DB : FFF50537;
  4DC : A94FF0EF;
  4DD : 0140006F;
  4DE : 710037B7;
  4DF : A7C78593;
  4E0 : FFF50537;
  4E1 : A80FF0EF;
  4E2 : 710037B7;
  4E3 : E1878593;
  4E4 : FFF50537;
  4E5 : A70FF0EF;
  4E6 : FFFE07B7;
  4E7 : 0087A783;
  4E8 : 0407F793;
  4E9 : 06078E63;
  4EA : FFFE07B7;
  4EB : 00C7A783;
  4EC : 0087D793;
  4ED : 00F7F793;
  4EE : FCF42823;
  4EF : FD042783;
  4F0 : 00100713;
  4F1 : 00F717B3;
  4F2 : FCF42823;
  4F3 : FFFE07B7;
  4F4 : 00C7A783;
  4F5 : 00C7D793;
  4F6 : 00F7F793;
  4F7 : FCF42623;
  4F8 : FCC42783;
  4F9 : 00100713;
  4FA : 00F717B3;
  4FB : FCF42623;
  4FC : FD042583;
  4FD : FCC42503;
  4FE : 374010EF;
  4FF : 00050793;
  500 : FD042703;
  501 : FCC42683;
  502 : 00078613;
  503 : 710037B7;
  504 : DF078593;
  505 : FFF50537;
  506 : 9ECFF0EF;
  507 : 0140006F;
  508 : 710037B7;
  509 : CAC78593;
  50A : FFF50537;
  50B : 9D8FF0EF;
  50C : FFFE07B7;
  50D : 00C7A703;
  50E : 010007B7;
  50F : 00F777B3;
  510 : 00078C63;
  511 : 710037B7;
  512 : E0478593;
  513 : FFF50537;
  514 : 9B4FF0EF;
  515 : 0140006F;
  516 : 710037B7;
  517 : A7C78593;
  518 : FFF50537;
  519 : 9A0FF0EF;
  51A : 710037B7;
  51B : E3078593;
  51C : FFF50537;
  51D : 990FF0EF;
  51E : FFFE07B7;
  51F : 0087A783;
  520 : FEF42423;
  521 : FE842783;
  522 : 0027F793;
  523 : 00078C63;
  524 : 710037B7;
  525 : A5478593;
  526 : FFF50537;
  527 : 968FF0EF;
  528 : 0140006F;
  529 : 710037B7;
  52A : CAC78593;
  52B : FFF50537;
  52C : 954FF0EF;
  52D : FFFE07B7;
  52E : 00C7A703;
  52F : 010107B7;
  530 : 00F777B3;
  531 : 00078C63;
  532 : 710037B7;
  533 : E0478593;
  534 : FFF50537;
  535 : 930FF0EF;
  536 : 0140006F;
  537 : 710037B7;
  538 : A7C78593;
  539 : FFF50537;
  53A : 91CFF0EF;
  53B : 710037B7;
  53C : E4878593;
  53D : FFF50537;
  53E : 90CFF0EF;
  53F : FFFE07B7;
  540 : 0087A783;
  541 : FEF42423;
  542 : FE842703;
  543 : 004007B7;
  544 : 00F777B3;
  545 : 00078A63;
  546 : 710037B7;
  547 : E6078593;
  548 : FFF50537;
  549 : 8E0FF0EF;
  54A : FE842703;
  54B : 000107B7;
  54C : 00F777B3;
  54D : 00078A63;
  54E : 710037B7;
  54F : E6878593;
  550 : FFF50537;
  551 : 8C0FF0EF;
  552 : FE842703;
  553 : 000047B7;
  554 : 00F777B3;
  555 : 00078A63;
  556 : 710037B7;
  557 : E7078593;
  558 : FFF50537;
  559 : 8A0FF0EF;
  55A : FE842703;
  55B : 000087B7;
  55C : 00F777B3;
  55D : 00078A63;
  55E : 710037B7;
  55F : E7878593;
  560 : FFF50537;
  561 : 880FF0EF;
  562 : FE842703;
  563 : 100007B7;
  564 : 00F777B3;
  565 : 00078A63;
  566 : 710037B7;
  567 : E8078593;
  568 : FFF50537;
  569 : 860FF0EF;
  56A : FE842703;
  56B : 040007B7;
  56C : 00F777B3;
  56D : 00078A63;
  56E : 710037B7;
  56F : E8878593;
  570 : FFF50537;
  571 : 840FF0EF;
  572 : FE842703;
  573 : 400007B7;
  574 : 00F777B3;
  575 : 00078A63;
  576 : 710037B7;
  577 : E9078593;
  578 : FFF50537;
  579 : 820FF0EF;
  57A : FE842703;
  57B : 001007B7;
  57C : 00F777B3;
  57D : 00078A63;
  57E : 710037B7;
  57F : E9C78593;
  580 : FFF50537;
  581 : 800FF0EF;
  582 : FE842703;
  583 : 010007B7;
  584 : 00F777B3;
  585 : 00078A63;
  586 : 710037B7;
  587 : EA478593;
  588 : FFF50537;
  589 : FE1FE0EF;
  58A : FE842703;
  58B : 200007B7;
  58C : 00F777B3;
  58D : 00078A63;
  58E : 710037B7;
  58F : EAC78593;
  590 : FFF50537;
  591 : FC1FE0EF;
  592 : FE842703;
  593 : 000407B7;
  594 : 00F777B3;
  595 : 00078A63;
  596 : 710037B7;
  597 : EB478593;
  598 : FFF50537;
  599 : FA1FE0EF;
  59A : 710037B7;
  59B : EBC78593;
  59C : FFF50537;
  59D : F91FE0EF;
  59E : FE842703;
  59F : 080007B7;
  5A0 : 00F777B3;
  5A1 : 00078A63;
  5A2 : 710037B7;
  5A3 : EC878593;
  5A4 : FFF50537;
  5A5 : F71FE0EF;
  5A6 : FE842703;
  5A7 : 008007B7;
  5A8 : 00F777B3;
  5A9 : 00078A63;
  5AA : 710037B7;
  5AB : ED078593;
  5AC : FFF50537;
  5AD : F51FE0EF;
  5AE : FE842703;
  5AF : 000027B7;
  5B0 : 00F777B3;
  5B1 : 00078A63;
  5B2 : 710037B7;
  5B3 : ED878593;
  5B4 : FFF50537;
  5B5 : F31FE0EF;
  5B6 : FE842703;
  5B7 : 000807B7;
  5B8 : 00F777B3;
  5B9 : 00078A63;
  5BA : 710037B7;
  5BB : EE078593;
  5BC : FFF50537;
  5BD : F11FE0EF;
  5BE : FE842703;
  5BF : 000207B7;
  5C0 : 00F777B3;
  5C1 : 00078A63;
  5C2 : 710037B7;
  5C3 : EE878593;
  5C4 : FFF50537;
  5C5 : EF1FE0EF;
  5C6 : FE842703;
  5C7 : 020007B7;
  5C8 : 00F777B3;
  5C9 : 00078A63;
  5CA : 710037B7;
  5CB : EF078593;
  5CC : FFF50537;
  5CD : ED1FE0EF;
  5CE : FE842703;
  5CF : 002007B7;
  5D0 : 00F777B3;
  5D1 : 00078A63;
  5D2 : 710037B7;
  5D3 : EF878593;
  5D4 : FFF50537;
  5D5 : EB1FE0EF;
  5D6 : 710037B7;
  5D7 : F0078593;
  5D8 : FFF50537;
  5D9 : EA1FE0EF;
  5DA : 0080006F;
  5DB : 00000013;
  5DC : 08C12083;
  5DD : 08812403;
  5DE : 09010113;
  5DF : 00008067;
  5E0 : FD010113;
  5E1 : 02112623;
  5E2 : 02812423;
  5E3 : 03010413;
  5E4 : FCA42E23;
  5E5 : FE042623;
  5E6 : FE0405A3;
  5E7 : FE040523;
  5E8 : FFF50537;
  5E9 : 92DFE0EF;
  5EA : 00050793;
  5EB : 0A078E63;
  5EC : FE042623;
  5ED : 0A80006F;
  5EE : 00300713;
  5EF : FEC42783;
  5F0 : 40F707B3;
  5F1 : 00379793;
  5F2 : FDC42703;
  5F3 : 00F757B3;
  5F4 : FEF405A3;
  5F5 : FE040523;
  5F6 : 01C0006F;
  5F7 : FEB44783;
  5F8 : FF078793;
  5F9 : FEF405A3;
  5FA : FEA44783;
  5FB : 00178793;
  5FC : FEF40523;
  5FD : FEB44703;
  5FE : 00F00793;
  5FF : FEE7E0E3;
  600 : FEA44783;
  601 : 00078E63;
  602 : FEA44783;
  603 : 03078793;
  604 : 0FF7F793;
  605 : 00078593;
  606 : FFF50537;
  607 : A49FE0EF;
  608 : FEB44783;
  609 : 03078793;
  60A : 0FF7F793;
  60B : 00078593;
  60C : FFF50537;
  60D : A31FE0EF;
  60E : FEC42703;
  60F : 00200793;
  610 : 00E7E863;
  611 : 02E00593;
  612 : FFF50537;
  613 : A19FE0EF;
  614 : FEC42783;
  615 : 00178793;
  616 : FEF42623;
  617 : FEC42703;
  618 : 00300793;
  619 : F4E7FAE3;
  61A : 00000013;
  61B : 02C12083;
  61C : 02812403;
  61D : 03010113;
  61E : 00008067;
  61F : F6010113;
  620 : 08112E23;
  621 : 08812C23;
  622 : 0A010413;
  623 : 710037B7;
  624 : FCC78713;
  625 : F6040793;
  626 : 00070693;
  627 : 07E00713;
  628 : 00070613;
  629 : 00068593;
  62A : 00078513;
  62B : 024010EF;
  62C : FE042623;
  62D : FE042423;
  62E : FE042223;
  62F : FE041123;
  630 : FE0400A3;
  631 : FFF50537;
  632 : 809FE0EF;
  633 : 00050793;
  634 : 0E078263;
  635 : FE042423;
  636 : 0C00006F;
  637 : 710037B7;
  638 : A7C78593;
  639 : FFF50537;
  63A : 9C9FE0EF;
  63B : FE042623;
  63C : 0900006F;
  63D : FE842703;
  63E : 00070793;
  63F : 00379793;
  640 : 40E787B3;
  641 : FEC42703;
  642 : 00E787B3;
  643 : 00179793;
  644 : FF078793;
  645 : 008787B3;
  646 : F707D783;
  647 : FEF41123;
  648 : FE042223;
  649 : 0440006F;
  64A : 02000793;
  64B : FEF400A3;
  64C : FE241783;
  64D : 0007D663;
  64E : 02300793;
  64F : FEF400A3;
  650 : FE144783;
  651 : 00078593;
  652 : FFF50537;
  653 : 919FE0EF;
  654 : FE245783;
  655 : 00179793;
  656 : FEF41123;
  657 : FE442783;
  658 : 00178793;
  659 : FEF42223;
  65A : FE442703;
  65B : 00F00793;
  65C : FAE7FCE3;
  65D : FEC42783;
  65E : 00178793;
  65F : FEF42623;
  660 : FEC42703;
  661 : 00600793;
  662 : F6E7F6E3;
  663 : FE842783;
  664 : 00178793;
  665 : FEF42423;
  666 : FE842703;
  667 : 00800793;
  668 : F2E7FEE3;
  669 : 710037B7;
  66A : A7C78593;
  66B : FFF50537;
  66C : 901FE0EF;
  66D : 00000013;
  66E : 09C12083;
  66F : 09812403;
  670 : 0A010113;
  671 : 00008067;
  672 : FB010113;
  673 : 04812623;
  674 : 05010413;
  675 : FC0027F3;
  676 : FEF42223;
  677 : FE442783;
  678 : 1007F793;
  679 : 00079663;
  67A : 00000793;
  67B : 15C0006F;
  67C : 010107B7;
  67D : 10178793;
  67E : FEF42623;
  67F : FEC42783;
  680 : FAF42C23;
  681 : FB842783;
  682 : FAF42A23;
  683 : FB442783;
  684 : 3A079073;
  685 : 00000013;
  686 : FEC42783;
  687 : FCF42023;
  688 : FC042783;
  689 : FAF42E23;
  68A : FBC42783;
  68B : 3A179073;
  68C : 00000013;
  68D : FEC42783;
  68E : FCF42423;
  68F : FC842783;
  690 : FCF42223;
  691 : FC442783;
  692 : 3A279073;
  693 : 00000013;
  694 : FEC42783;
  695 : FCF42823;
  696 : FD042783;
  697 : FCF42623;
  698 : FCC42783;
  699 : 3A379073;
  69A : 00000013;
  69B : FA042823;
  69C : 3A0027F3;
  69D : FCF42A23;
  69E : FD442703;
  69F : FEC42783;
  6A0 : 00F77733;
  6A1 : FB042783;
  6A2 : 00F707B3;
  6A3 : FAF42823;
  6A4 : 3A1027F3;
  6A5 : FCF42C23;
  6A6 : FD842703;
  6A7 : FEC42783;
  6A8 : 00F77733;
  6A9 : FB042783;
  6AA : 00F707B3;
  6AB : FAF42823;
  6AC : 3A2027F3;
  6AD : FCF42E23;
  6AE : FDC42703;
  6AF : FEC42783;
  6B0 : 00F77733;
  6B1 : FB042783;
  6B2 : 00F707B3;
  6B3 : FAF42823;
  6B4 : 3A3027F3;
  6B5 : FEF42023;
  6B6 : FE042703;
  6B7 : FEC42783;
  6B8 : 00F77733;
  6B9 : FB042783;
  6BA : 00F707B3;
  6BB : FAF42823;
  6BC : FE042423;
  6BD : FB044783;
  6BE : 00078713;
  6BF : FE842783;
  6C0 : 00E787B3;
  6C1 : FEF42423;
  6C2 : FB144783;
  6C3 : 00078713;
  6C4 : FE842783;
  6C5 : 00E787B3;
  6C6 : FEF42423;
  6C7 : FB244783;
  6C8 : 00078713;
  6C9 : FE842783;
  6CA : 00E787B3;
  6CB : FEF42423;
  6CC : FB344783;
  6CD : 00078713;
  6CE : FE842783;
  6CF : 00E787B3;
  6D0 : FEF42423;
  6D1 : FE842783;
  6D2 : 00078513;
  6D3 : 04C12403;
  6D4 : 05010113;
  6D5 : 00008067;
  6D6 : FD010113;
  6D7 : 02812623;
  6D8 : 03010413;
  6D9 : FC0027F3;
  6DA : FEF42223;
  6DB : FE442783;
  6DC : 1007F793;
  6DD : 00079663;
  6DE : 00000793;
  6DF : 0980006F;
  6E0 : FC042A23;
  6E1 : FD442783;
  6E2 : FCF42823;
  6E3 : FD042783;
  6E4 : 3A079073;
  6E5 : 00000013;
  6E6 : FFF00793;
  6E7 : FCF42E23;
  6E8 : FDC42783;
  6E9 : FCF42C23;
  6EA : FD842783;
  6EB : 3B079073;
  6EC : 00000013;
  6ED : 3B0027F3;
  6EE : FEF42023;
  6EF : FE042783;
  6F0 : FEF42623;
  6F1 : FEC42783;
  6F2 : 00079663;
  6F3 : 00000793;
  6F4 : 0440006F;
  6F5 : 00200793;
  6F6 : FEF42423;
  6F7 : FEC42783;
  6F8 : 0017F793;
  6F9 : 02079063;
  6FA : FEC42783;
  6FB : 0017D793;
  6FC : FEF42623;
  6FD : FE842783;
  6FE : 00178793;
  6FF : FEF42423;
  700 : FDDFF06F;
  701 : 00000013;
  702 : FE842783;
  703 : 00100713;
  704 : 00F717B3;
  705 : 00078513;
  706 : 02C12403;
  707 : 03010113;
  708 : 00008067;
  709 : F4010113;
  70A : 0A812E23;
  70B : 0C010413;
  70C : FC0027F3;
  70D : FEF42423;
  70E : FE842783;
  70F : 2007F793;
  710 : 00079663;
  711 : 00000793;
  712 : 2CC0006F;
  713 : FF800793;
  714 : F4F42423;
  715 : F4842783;
  716 : F4F42223;
  717 : F4442783;
  718 : 3207A073;
  719 : 00000013;
  71A : 00100793;
  71B : F4F42823;
  71C : F5042783;
  71D : F4F42623;
  71E : F4C42783;
  71F : B0379073;
  720 : 00000013;
  721 : 00100793;
  722 : F4F42C23;
  723 : F5842783;
  724 : F4F42A23;
  725 : F5442783;
  726 : B0479073;
  727 : 00000013;
  728 : 00100793;
  729 : F6F42023;
  72A : F6042783;
  72B : F4F42E23;
  72C : F5C42783;
  72D : B0579073;
  72E : 00000013;
  72F : 00100793;
  730 : F6F42423;
  731 : F6842783;
  732 : F6F42223;
  733 : F6442783;
  734 : B0679073;
  735 : 00000013;
  736 : 00100793;
  737 : F6F42823;
  738 : F7042783;
  739 : F6F42623;
  73A : F6C42783;
  73B : B0779073;
  73C : 00000013;
  73D : 00100793;
  73E : F6F42C23;
  73F : F7842783;
  740 : F6F42A23;
  741 : F7442783;
  742 : B0879073;
  743 : 00000013;
  744 : 00100793;
  745 : F8F42023;
  746 : F8042783;
  747 : F6F42E23;
  748 : F7C42783;
  749 : B0979073;
  74A : 00000013;
  74B : 00100793;
  74C : F8F42423;
  74D : F8842783;
  74E : F8F42223;
  74F : F8442783;
  750 : B0A79073;
  751 : 00000013;
  752 : 00100793;
  753 : F8F42823;
  754 : F9042783;
  755 : F8F42623;
  756 : F8C42783;
  757 : B0B79073;
  758 : 00000013;
  759 : 00100793;
  75A : F8F42C23;
  75B : F9842783;
  75C : F8F42A23;
  75D : F9442783;
  75E : B0C79073;
  75F : 00000013;
  760 : 00100793;
  761 : FAF42023;
  762 : FA042783;
  763 : F8F42E23;
  764 : F9C42783;
  765 : B0D79073;
  766 : 00000013;
  767 : 00100793;
  768 : FAF42423;
  769 : FA842783;
  76A : FAF42223;
  76B : FA442783;
  76C : B0E79073;
  76D : 00000013;
  76E : 00100793;
  76F : FAF42823;
  770 : FB042783;
  771 : FAF42623;
  772 : FAC42783;
  773 : B0F79073;
  774 : 00000013;
  775 : FE042623;
  776 : B03027F3;
  777 : FAF42A23;
  778 : FB442783;
  779 : FEC42703;
  77A : 00F707B3;
  77B : FEF42623;
  77C : B04027F3;
  77D : FAF42C23;
  77E : FB842783;
  77F : FEC42703;
  780 : 00F707B3;
  781 : FEF42623;
  782 : B05027F3;
  783 : FAF42E23;
  784 : FBC42783;
  785 : FEC42703;
  786 : 00F707B3;
  787 : FEF42623;
  788 : B06027F3;
  789 : FCF42023;
  78A : FC042783;
  78B : FEC42703;
  78C : 00F707B3;
  78D : FEF42623;
  78E : B07027F3;
  78F : FCF42223;
  790 : FC442783;
  791 : FEC42703;
  792 : 00F707B3;
  793 : FEF42623;
  794 : B08027F3;
  795 : FCF42423;
  796 : FC842783;
  797 : FEC42703;
  798 : 00F707B3;
  799 : FEF42623;
  79A : B09027F3;
  79B : FCF42623;
  79C : FCC42783;
  79D : FEC42703;
  79E : 00F707B3;
  79F : FEF42623;
  7A0 : B0A027F3;
  7A1 : FCF42823;
  7A2 : FD042783;
  7A3 : FEC42703;
  7A4 : 00F707B3;
  7A5 : FEF42623;
  7A6 : B0B027F3;
  7A7 : FCF42A23;
  7A8 : FD442783;
  7A9 : FEC42703;
  7AA : 00F707B3;
  7AB : FEF42623;
  7AC : B0C027F3;
  7AD : FCF42C23;
  7AE : FD842783;
  7AF : FEC42703;
  7B0 : 00F707B3;
  7B1 : FEF42623;
  7B2 : B0D027F3;
  7B3 : FCF42E23;
  7B4 : FDC42783;
  7B5 : FEC42703;
  7B6 : 00F707B3;
  7B7 : FEF42623;
  7B8 : B0E027F3;
  7B9 : FEF42023;
  7BA : FE042783;
  7BB : FEC42703;
  7BC : 00F707B3;
  7BD : FEF42623;
  7BE : B0F027F3;
  7BF : FEF42223;
  7C0 : FE442783;
  7C1 : FEC42703;
  7C2 : 00F707B3;
  7C3 : FEF42623;
  7C4 : FEC42783;
  7C5 : 00078513;
  7C6 : 0BC12403;
  7C7 : 0C010113;
  7C8 : 00008067;
  7C9 : FC010113;
  7CA : 02812E23;
  7CB : 04010413;
  7CC : FE042623;
  7CD : FE042423;
  7CE : FC0027F3;
  7CF : FEF42223;
  7D0 : FE442783;
  7D1 : 2007F793;
  7D2 : 00079663;
  7D3 : 00000793;
  7D4 : 0C80006F;
  7D5 : 00800793;
  7D6 : FCF42623;
  7D7 : FCC42783;
  7D8 : FCF42423;
  7D9 : FC842783;
  7DA : 3207A073;
  7DB : 00000013;
  7DC : FFF00793;
  7DD : FCF42A23;
  7DE : FD442783;
  7DF : FCF42823;
  7E0 : FD042783;
  7E1 : B0379073;
  7E2 : 00000013;
  7E3 : FFF00793;
  7E4 : FCF42E23;
  7E5 : FDC42783;
  7E6 : FCF42C23;
  7E7 : FD842783;
  7E8 : B8379073;
  7E9 : 00000013;
  7EA : FE042423;
  7EB : B03027F3;
  7EC : FEF42023;
  7ED : FE042783;
  7EE : FEF42623;
  7EF : 01C0006F;
  7F0 : FE842783;
  7F1 : 00178793;
  7F2 : FEF42423;
  7F3 : FEC42783;
  7F4 : 0017D793;
  7F5 : FEF42623;
  7F6 : FEC42783;
  7F7 : FE0792E3;
  7F8 : B83027F3;
  7F9 : FCF42223;
  7FA : FC442783;
  7FB : FEF42623;
  7FC : 01C0006F;
  7FD : FE842783;
  7FE : 00178793;
  7FF : FEF42423;
  800 : FEC42783;
  801 : 0017D793;
  802 : FEF42623;
  803 : FEC42783;
  804 : FE0792E3;
  805 : FE842783;
  806 : 00078513;
  807 : 03C12403;
  808 : 04010113;
  809 : 00008067;
  80A : FD010113;
  80B : 02812623;
  80C : 03010413;
  80D : 000027B7;
  80E : 80078793;
  80F : FCF42A23;
  810 : FD442783;
  811 : FCF42823;
  812 : FD042783;
  813 : 30079073;
  814 : 00000013;
  815 : 710027B7;
  816 : 11878793;
  817 : FFC7F793;
  818 : FCF42E23;
  819 : FDC42783;
  81A : FCF42C23;
  81B : FD842783;
  81C : 30579073;
  81D : 00000013;
  81E : FE042223;
  81F : FE442783;
  820 : FEF42023;
  821 : FE042783;
  822 : 30479073;
  823 : 00000013;
  824 : F14027F3;
  825 : FEF42423;
  826 : FE842783;
  827 : 06079463;
  828 : FE042623;
  829 : 0540006F;
  82A : 710027B7;
  82B : 28C78713;
  82C : 800007B7;
  82D : 00078693;
  82E : FEC42783;
  82F : 00279793;
  830 : 00F687B3;
  831 : 00E7A023;
  832 : 710027B7;
  833 : 28C78713;
  834 : 800007B7;
  835 : 00078693;
  836 : FEC42783;
  837 : 02078793;
  838 : 00279793;
  839 : 00F687B3;
  83A : 00E7A023;
  83B : FEC42783;
  83C : 00178793;
  83D : FEF42623;
  83E : FEC42703;
  83F : 01F00793;
  840 : FAE7D4E3;
  841 : 0FF0000F;
  842 : 00000013;
  843 : 02C12403;
  844 : 03010113;
  845 : 00008067;
  846 : 34011073;
  847 : F8010113;
  848 : 00112223;
  849 : 340110F3;
  84A : 00112423;
  84B : 00312623;
  84C : 00412823;
  84D : 00512A23;
  84E : 00612C23;
  84F : 00712E23;
  850 : 02812023;
  851 : 02912223;
  852 : 02A12423;
  853 : 02B12623;
  854 : 02C12823;
  855 : 02D12A23;
  856 : 02E12C23;
  857 : 02F12E23;
  858 : 05012023;
  859 : 05112223;
  85A : 05212423;
  85B : 05312623;
  85C : 05412823;
  85D : 05512A23;
  85E : 05612C23;
  85F : 05712E23;
  860 : 07812023;
  861 : 07912223;
  862 : 07A12423;
  863 : 07B12623;
  864 : 07C12823;
  865 : 07D12A23;
  866 : 07E12C23;
  867 : 07F12E23;
  868 : 0FF0000F;
  869 : 342027F3;
  86A : 00078093;
  86B : 00008793;
  86C : 00078093;
  86D : 01F0D693;
  86E : 01F0F793;
  86F : 80000737;
  870 : 00070713;
  871 : 00569693;
  872 : 00F687B3;
  873 : 00279793;
  874 : 00F707B3;
  875 : 0007A783;
  876 : 00078493;
  877 : 000480E7;
  878 : 342027F3;
  879 : 00078493;
  87A : 00048793;
  87B : 0007CE63;
  87C : 341027F3;
  87D : 00078493;
  87E : 00048793;
  87F : 00478493;
  880 : 34149073;
  881 : 00000013;
  882 : 00412083;
  883 : 00C12183;
  884 : 01012203;
  885 : 01412283;
  886 : 01812303;
  887 : 01C12383;
  888 : 02012403;
  889 : 02412483;
  88A : 02812503;
  88B : 02C12583;
  88C : 03012603;
  88D : 03412683;
  88E : 03812703;
  88F : 03C12783;
  890 : 04012803;
  891 : 04412883;
  892 : 04812903;
  893 : 04C12983;
  894 : 05012A03;
  895 : 05412A83;
  896 : 05812B03;
  897 : 05C12B83;
  898 : 06012C03;
  899 : 06412C83;
  89A : 06812D03;
  89B : 06C12D83;
  89C : 07012E03;
  89D : 07412E83;
  89E : 07812F03;
  89F : 07C12F83;
  8A0 : 00812103;
  8A1 : 30200073;
  8A2 : 00000013;
  8A3 : FC010113;
  8A4 : 02112E23;
  8A5 : 02812C23;
  8A6 : 04010413;
  8A7 : FFF50537;
  8A8 : E31FD0EF;
  8A9 : 00050793;
  8AA : 32078863;
  8AB : 710037B7;
  8AC : 69878513;
  8AD : 338000EF;
  8AE : F14027F3;
  8AF : FEF42423;
  8B0 : FE842783;
  8B1 : 0017F793;
  8B2 : 00078A63;
  8B3 : 710037B7;
  8B4 : 6A878513;
  8B5 : 318000EF;
  8B6 : 0100006F;
  8B7 : 710037B7;
  8B8 : 6B078513;
  8B9 : 308000EF;
  8BA : 300027F3;
  8BB : FEF42223;
  8BC : FE442703;
  8BD : 000027B7;
  8BE : 80078793;
  8BF : 00F777B3;
  8C0 : 00078A63;
  8C1 : 710037B7;
  8C2 : 6B878513;
  8C3 : 2E0000EF;
  8C4 : 0100006F;
  8C5 : 710037B7;
  8C6 : 6BC78513;
  8C7 : 2D0000EF;
  8C8 : 342027F3;
  8C9 : FEF42023;
  8CA : FE042783;
  8CB : FEF42623;
  8CC : FEC42703;
  8CD : 800007B7;
  8CE : 01F78793;
  8CF : 18E7E463;
  8D0 : FEC42703;
  8D1 : 800007B7;
  8D2 : 01078793;
  8D3 : 14F77E63;
  8D4 : FEC42703;
  8D5 : 800007B7;
  8D6 : 00B78793;
  8D7 : 12F70E63;
  8D8 : FEC42703;
  8D9 : 800007B7;
  8DA : 00B78793;
  8DB : 14E7EC63;
  8DC : FEC42703;
  8DD : 800007B7;
  8DE : 00778793;
  8DF : 10F70663;
  8E0 : FEC42703;
  8E1 : 800007B7;
  8E2 : 00778793;
  8E3 : 12E7EC63;
  8E4 : FEC42703;
  8E5 : 00B00793;
  8E6 : 02E7E663;
  8E7 : FEC42703;
  8E8 : 00B00793;
  8E9 : 12E7E063;
  8EA : FEC42783;
  8EB : 00279713;
  8EC : 710047B7;
  8ED : 8AC78793;
  8EE : 00F707B3;
  8EF : 0007A783;
  8F0 : 00078067;
  8F1 : FEC42703;
  8F2 : 800007B7;
  8F3 : 00378793;
  8F4 : 0AF70463;
  8F5 : 0F00006F;
  8F6 : 710037B7;
  8F7 : 6C078513;
  8F8 : 20C000EF;
  8F9 : 0FC0006F;
  8FA : 710037B7;
  8FB : 6DC78513;
  8FC : 1FC000EF;
  8FD : 0EC0006F;
  8FE : 710037B7;
  8FF : 6F078513;
  900 : 1EC000EF;
  901 : 0DC0006F;
  902 : 710037B7;
  903 : 71078513;
  904 : 1DC000EF;
  905 : 0CC0006F;
  906 : 710037B7;
  907 : 72878513;
  908 : 1CC000EF;
  909 : 0BC0006F;
  90A : 710037B7;
  90B : 74078513;
  90C : 1BC000EF;
  90D : 0AC0006F;
  90E : 710037B7;
  90F : 75478513;
  910 : 1AC000EF;
  911 : 09C0006F;
  912 : 710037B7;
  913 : 77078513;
  914 : 19C000EF;
  915 : 08C0006F;
  916 : 710037B7;
  917 : 78478513;
  918 : 18C000EF;
  919 : 07C0006F;
  91A : 710037B7;
  91B : 7A478513;
  91C : 17C000EF;
  91D : 06C0006F;
  91E : 710037B7;
  91F : 7C478513;
  920 : 16C000EF;
  921 : 05C0006F;
  922 : 710037B7;
  923 : 7DC78513;
  924 : 15C000EF;
  925 : 04C0006F;
  926 : 710037B7;
  927 : 7F078513;
  928 : 14C000EF;
  929 : 03C0006F;
  92A : 710047B7;
  92B : 80878513;
  92C : 13C000EF;
  92D : 00100593;
  92E : FEC42503;
  92F : 174000EF;
  930 : 0200006F;
  931 : 710047B7;
  932 : 81478513;
  933 : 120000EF;
  934 : 00800593;
  935 : FEC42503;
  936 : 158000EF;
  937 : 00000013;
  938 : 710047B7;
  939 : 82878513;
  93A : 104000EF;
  93B : 341027F3;
  93C : FCF42A23;
  93D : FD442783;
  93E : 00800593;
  93F : 00078513;
  940 : 130000EF;
  941 : 710047B7;
  942 : 83078513;
  943 : 0E0000EF;
  944 : 34A027F3;
  945 : FCF42C23;
  946 : FD842783;
  947 : 00800593;
  948 : 00078513;
  949 : 10C000EF;
  94A : 710047B7;
  94B : 83C78513;
  94C : 0BC000EF;
  94D : 343027F3;
  94E : FCF42E23;
  94F : FDC42783;
  950 : 00800593;
  951 : 00078513;
  952 : 0E8000EF;
  953 : FEC42783;
  954 : 0207DC63;
  955 : 710047B7;
  956 : 84478513;
  957 : 090000EF;
  958 : FEC42783;
  959 : 01F7F793;
  95A : 00100713;
  95B : 00F717B3;
  95C : FCF42823;
  95D : FD042783;
  95E : FCF42623;
  95F : FCC42783;
  960 : 3047B073;
  961 : 00000013;
  962 : FEC42703;
  963 : 00100793;
  964 : 00F70663;
  965 : FEC42783;
  966 : 02079863;
  967 : 710047B7;
  968 : 85C78513;
  969 : 048000EF;
  96A : FC042423;
  96B : FC842783;
  96C : FCF42223;
  96D : FC442783;
  96E : 30479073;
  96F : 00000013;
  970 : 10500073;
  971 : FFDFF06F;
  972 : 710047B7;
  973 : 88478513;
  974 : 01C000EF;
  975 : 0080006F;
  976 : 00000013;
  977 : 03C12083;
  978 : 03812403;
  979 : 04010113;
  97A : 00008067;
  97B : FE010113;
  97C : 00112E23;
  97D : 00812C23;
  97E : 02010413;
  97F : FEA42623;
  980 : FFF50537;
  981 : ACDFD0EF;
  982 : 00050793;
  983 : 00078863;
  984 : FEC42583;
  985 : FFF50537;
  986 : C99FD0EF;
  987 : 00000013;
  988 : 01C12083;
  989 : 01812403;
  98A : 02010113;
  98B : 00008067;
  98C : FC010113;
  98D : 02112E23;
  98E : 02812C23;
  98F : 04010413;
  990 : FCA42623;
  991 : FCB42423;
  992 : FE042623;
  993 : 710047B7;
  994 : 89878793;
  995 : 0007A583;
  996 : 0047A603;
  997 : 0087A683;
  998 : 00C7A703;
  999 : FCB42A23;
  99A : FCC42C23;
  99B : FCD42E23;
  99C : FEE42023;
  99D : 0107C783;
  99E : FEF40223;
  99F : FFF50537;
  9A0 : A51FD0EF;
  9A1 : 00050793;
  9A2 : 08078063;
  9A3 : 03000593;
  9A4 : FFF50537;
  9A5 : BD1FD0EF;
  9A6 : 07800593;
  9A7 : FFF50537;
  9A8 : BC5FD0EF;
  9A9 : FC842783;
  9AA : FF878793;
  9AB : FEF42623;
  9AC : 04C0006F;
  9AD : 00700713;
  9AE : FEC42783;
  9AF : 40F707B3;
  9B0 : 00279793;
  9B1 : FCC42703;
  9B2 : 00F757B3;
  9B3 : 00F7F793;
  9B4 : FEF42423;
  9B5 : FE842783;
  9B6 : FF078793;
  9B7 : 008787B3;
  9B8 : FE47C783;
  9B9 : 00078593;
  9BA : FFF50537;
  9BB : B79FD0EF;
  9BC : FEC42783;
  9BD : 00178793;
  9BE : FEF42623;
  9BF : FEC42703;
  9C0 : 00700793;
  9C1 : FAE7D8E3;
  9C2 : 00000013;
  9C3 : 03C12083;
  9C4 : 03812403;
  9C5 : 04010113;
  9C6 : 00008067;
  9C7 : FF010113;
  9C8 : 00812623;
  9C9 : 01010413;
  9CA : FFFC07B7;
  9CB : 0007A783;
  9CC : 00078513;
  9CD : 00C12403;
  9CE : 01010113;
  9CF : 00008067;
  9D0 : FF010113;
  9D1 : 00112623;
  9D2 : 00812423;
  9D3 : 01010413;
  9D4 : FCDFF0EF;
  9D5 : 00050793;
  9D6 : 00078513;
  9D7 : 00C12083;
  9D8 : 00812403;
  9D9 : 01010113;
  9DA : 00008067;
  9DB : 00050613;
  9DC : 00000513;
  9DD : 0015F693;
  9DE : 00068463;
  9DF : 00C50533;
  9E0 : 0015D593;
  9E1 : 00161613;
  9E2 : FE0596E3;
  9E3 : 00008067;
  9E4 : 00050E13;
  9E5 : FF010113;
  9E6 : 00068313;
  9E7 : 00112623;
  9E8 : 00060513;
  9E9 : 000E0893;
  9EA : 00060693;
  9EB : 00000713;
  9EC : 00000793;
  9ED : 00000813;
  9EE : 0016FE93;
  9EF : 00171613;
  9F0 : 000E8A63;
  9F1 : 01088833;
  9F2 : 00E787B3;
  9F3 : 01183733;
  9F4 : 00F707B3;
  9F5 : 01F8D713;
  9F6 : 0016D693;
  9F7 : 00E66733;
  9F8 : 00189893;
  9F9 : FC069AE3;
  9FA : 00058663;
  9FB : F81FF0EF;
  9FC : 00A787B3;
  9FD : 00030A63;
  9FE : 000E0513;
  9FF : 00030593;
  A00 : F6DFF0EF;
  A01 : 00F507B3;
  A02 : 00C12083;
  A03 : 00080513;
  A04 : 00078593;
  A05 : 01010113;
  A06 : 00008067;
  A07 : 06054063;
  A08 : 0605C663;
  A09 : 00058613;
  A0A : 00050593;
  A0B : FFF00513;
  A0C : 02060C63;
  A0D : 00100693;
  A0E : 00B67A63;
  A0F : 00C05863;
  A10 : 00161613;
  A11 : 00169693;
  A12 : FEB66AE3;
  A13 : 00000513;
  A14 : 00C5E663;
  A15 : 40C585B3;
  A16 : 00D56533;
  A17 : 0016D693;
  A18 : 00165613;
  A19 : FE0696E3;
  A1A : 00008067;
  A1B : 00008293;
  A1C : FB5FF0EF;
  A1D : 00058513;
  A1E : 00028067;
  A1F : 40A00533;
  A20 : 00B04863;
  A21 : 40B005B3;
  A22 : F9DFF06F;
  A23 : 40B005B3;
  A24 : 00008293;
  A25 : F91FF0EF;
  A26 : 40A00533;
  A27 : 00028067;
  A28 : 00008293;
  A29 : 0005CA63;
  A2A : 00054C63;
  A2B : F79FF0EF;
  A2C : 00058513;
  A2D : 00028067;
  A2E : 40B005B3;
  A2F : FE0558E3;
  A30 : 40A00533;
  A31 : F61FF0EF;
  A32 : 40B00533;
  A33 : 00028067;
  A34 : 00050313;
  A35 : 00060E63;
  A36 : 00058383;
  A37 : 00730023;
  A38 : FFF60613;
  A39 : 00130313;
  A3A : 00158593;
  A3B : FE0616E3;
  A3C : 00008067;
  A3D : 00050793;
  A3E : 0007C703;
  A3F : 00178793;
  A40 : FE071CE3;
  A41 : 40A78533;
  A42 : FFF50513;
  A43 : 00008067;
  A44 : 524F454E;
  A45 : 3A323356;
  A46 : 6C654820;
  A47 : 77206F6C;
  A48 : 646C726F;
  A49 : 00000A21;
  A4A : 524F454E;
  A4B : 3A323356;
  A4C : 756F4620;
  A4D : 5320646E;
  A4E : 72204244;
  A4F : 20746F6F;
  A50 : 30207461;
  A51 : 0A782578;
  A52 : 00000000;
  A53 : 71000440;
  A54 : 71000464;
  A55 : 71000584;
  A56 : 71000584;
  A57 : 71000584;
  A58 : 71000584;
  A59 : 71000464;
  A5A : 71000584;
  A5B : 71000584;
  A5C : 71000584;
  A5D : 71000584;
  A5E : 71000584;
  A5F : 71000584;
  A60 : 710004FC;
  A61 : 71000584;
  A62 : 71000584;
  A63 : 71000420;
  A64 : 71000584;
  A65 : 710004C4;
  A66 : 71000584;
  A67 : 71000584;
  A68 : 710004FC;
  A69 : 33323130;
  A6A : 37363534;
  A6B : 62613938;
  A6C : 66656463;
  A6D : 3C3C0A0A;
  A6E : 4F454E20;
  A6F : 32335652;
  A70 : 6F725020;
  A71 : 73736563;
  A72 : 4320726F;
  A73 : 69666E6F;
  A74 : 61727567;
  A75 : 6E6F6974;
  A76 : 0A3E3E20;
  A77 : 0000000A;
  A78 : 73207349;
  A79 : 6C756D69;
  A7A : 6F697461;
  A7B : 20203A6E;
  A7C : 20202020;
  A7D : 00000020;
  A7E : 0A736579;
  A7F : 00000000;
  A80 : 000A6F6E;
  A81 : 20555043;
  A82 : 65726F63;
  A83 : 68282073;
  A84 : 73747261;
  A85 : 20203A29;
  A86 : 0A752520;
  A87 : 00000000;
  A88 : 636F6C43;
  A89 : 7073206B;
  A8A : 3A646565;
  A8B : 20202020;
  A8C : 20202020;
  A8D : 20752520;
  A8E : 000A7A48;
  A8F : 632D6E4F;
  A90 : 20706968;
  A91 : 75626564;
  A92 : 72656767;
  A93 : 2020203A;
  A94 : 00000020;
  A95 : 62616E65;
  A96 : 0064656C;
  A97 : 61736964;
  A98 : 64656C62;
  A99 : 00000000;
  A9A : 61202B20;
  A9B : 65687475;
  A9C : 6369746E;
  A9D : 6F697461;
  A9E : 00000A6E;
  A9F : 0000000A;
  AA0 : 74726148;
  AA1 : 3A444920;
  AA2 : 20202020;
  AA3 : 20202020;
  AA4 : 20202020;
  AA5 : 25783020;
  AA6 : 72410A78;
  AA7 : 74696863;
  AA8 : 75746365;
  AA9 : 49206572;
  AAA : 20203A44;
  AAB : 30202020;
  AAC : 0A782578;
  AAD : 6C706D49;
  AAE : 6E656D65;
  AAF : 69746174;
  AB0 : 49206E6F;
  AB1 : 20203A44;
  AB2 : 25783020;
  AB3 : 00000078;
  AB4 : 00762820;
  AB5 : 00000A29;
  AB6 : 68637241;
  AB7 : 63657469;
  AB8 : 65727574;
  AB9 : 2020203A;
  ABA : 20202020;
  ABB : 00000020;
  ABC : 32337672;
  ABD : 74696C2D;
  ABE : 00656C74;
  ABF : 6E6B6E75;
  AC0 : 006E776F;
  AC1 : 4153490A;
  AC2 : 74786520;
  AC3 : 69736E65;
  AC4 : 3A736E6F;
  AC5 : 20202020;
  AC6 : 00002020;
  AC7 : 78656453;
  AC8 : 00002074;
  AC9 : 72746453;
  ACA : 00206769;
  ACB : 6D706D53;
  ACC : 00002070;
  ACD : 6D61615A;
  ACE : 0000206F;
  ACF : 726C615A;
  AD0 : 00206373;
  AD1 : 2062635A;
  AD2 : 00000000;
  AD3 : 2061625A;
  AD4 : 00000000;
  AD5 : 2062625A;
  AD6 : 00000000;
  AD7 : 626B625A;
  AD8 : 00000020;
  AD9 : 636B625A;
  ADA : 00000020;
  ADB : 786B625A;
  ADC : 00000020;
  ADD : 2073625A;
  ADE : 00000000;
  ADF : 6E69665A;
  AE0 : 00002078;
  AE1 : 6E63695A;
  AE2 : 00207274;
  AE3 : 6F63695A;
  AE4 : 0020646E;
  AE5 : 7363695A;
  AE6 : 00002072;
  AE7 : 6566695A;
  AE8 : 6965636E;
  AE9 : 00000020;
  AEA : 7068695A;
  AEB : 0000206D;
  AEC : 206E6B5A;
  AED : 00000000;
  AEE : 646E6B5A;
  AEF : 00000020;
  AF0 : 656E6B5A;
  AF1 : 00000020;
  AF2 : 686E6B5A;
  AF3 : 00000020;
  AF4 : 20736B5A;
  AF5 : 00000000;
  AF6 : 65736B5A;
  AF7 : 00002064;
  AF8 : 68736B5A;
  AF9 : 00000020;
  AFA : 20746B5A;
  AFB : 00000000;
  AFC : 756D6D5A;
  AFD : 0000206C;
  AFE : 6663785A;
  AFF : 00002075;
  B00 : 6E75540A;
  B01 : 20676E69;
  B02 : 6974706F;
  B03 : 3A736E6F;
  B04 : 20202020;
  B05 : 00002020;
  B06 : 736E6F63;
  B07 : 625F7474;
  B08 : 00002072;
  B09 : 74736166;
  B0A : 6C756D5F;
  B0B : 00000020;
  B0C : 74736166;
  B0D : 6968735F;
  B0E : 00207466;
  B0F : 685F6672;
  B10 : 73725F77;
  B11 : 00002074;
  B12 : 7968500A;
  B13 : 4D202E73;
  B14 : 726F6D65;
  B15 : 72502079;
  B16 : 3A2E746F;
  B17 : 00002020;
  B18 : 72207525;
  B19 : 6F696765;
  B1A : 2973286E;
  B1B : 7525202C;
  B1C : 74796220;
  B1D : 67207365;
  B1E : 756E6172;
  B1F : 6972616C;
  B20 : 202C7974;
  B21 : 65646F6D;
  B22 : 003D2073;
  B23 : 46464F20;
  B24 : 00000000;
  B25 : 524F5420;
  B26 : 00000000;
  B27 : 34414E20;
  B28 : 00000000;
  B29 : 50414E20;
  B2A : 0000544F;
  B2B : 656E6F6E;
  B2C : 00000000;
  B2D : 4D50480A;
  B2E : 756F6320;
  B2F : 7265746E;
  B30 : 20203A73;
  B31 : 20202020;
  B32 : 00002020;
  B33 : 63207525;
  B34 : 746E756F;
  B35 : 73287265;
  B36 : 25202C29;
  B37 : 69622075;
  B38 : 29732874;
  B39 : 64697720;
  B3A : 00000065;
  B3B : 6F6F420A;
  B3C : 6F632074;
  B3D : 6769666E;
  B3E : 74617275;
  B3F : 3A6E6F69;
  B40 : 00002020;
  B41 : 746F6F62;
  B42 : 61697620;
  B43 : 6F6F6220;
  B44 : 616F6C74;
  B45 : 20726564;
  B46 : 0A293028;
  B47 : 00000000;
  B48 : 746F6F62;
  B49 : 6F726620;
  B4A : 7563206D;
  B4B : 6D6F7473;
  B4C : 64646120;
  B4D : 73736572;
  B4E : 29312820;
  B4F : 0000000A;
  B50 : 746F6F62;
  B51 : 6F726620;
  B52 : 7270206D;
  B53 : 6E692D65;
  B54 : 61697469;
  B55 : 657A696C;
  B56 : 4D492064;
  B57 : 28204D45;
  B58 : 000A2932;
  B59 : 6E6B6E75;
  B5A : 206E776F;
  B5B : 29752528;
  B5C : 0000000A;
  B5D : 20737542;
  B5E : 656D6974;
  B5F : 2074756F;
  B60 : 646E6977;
  B61 : 203A776F;
  B62 : 20752520;
  B63 : 6C637963;
  B64 : 000A7365;
  B65 : 65746E49;
  B66 : 6C616E72;
  B67 : 454D4920;
  B68 : 20203A4D;
  B69 : 20202020;
  B6A : 00000020;
  B6B : 62207525;
  B6C : 73657479;
  B6D : 0000000A;
  B6E : 656E6F6E;
  B6F : 0000000A;
  B70 : 65746E49;
  B71 : 6C616E72;
  B72 : 454D4420;
  B73 : 20203A4D;
  B74 : 20202020;
  B75 : 00000020;
  B76 : 20555043;
  B77 : 61632D49;
  B78 : 3A656863;
  B79 : 20202020;
  B7A : 20202020;
  B7B : 00000020;
  B7C : 62207525;
  B7D : 73657479;
  B7E : 75252820;
  B7F : 29752578;
  B80 : 00000000;
  B81 : 7562202C;
  B82 : 73747372;
  B83 : 616E6520;
  B84 : 64656C62;
  B85 : 0000000A;
  B86 : 20555043;
  B87 : 61632D44;
  B88 : 3A656863;
  B89 : 20202020;
  B8A : 20202020;
  B8B : 00000020;
  B8C : 2E747845;
  B8D : 73756220;
  B8E : 746E6920;
  B8F : 61667265;
  B90 : 203A6563;
  B91 : 00000020;
  B92 : 69726550;
  B93 : 72656870;
  B94 : 3A736C61;
  B95 : 20202020;
  B96 : 20202020;
  B97 : 00000020;
  B98 : 20534643;
  B99 : 00000000;
  B9A : 4E494C43;
  B9B : 00002054;
  B9C : 20414D44;
  B9D : 00000000;
  B9E : 4F495047;
  B9F : 00000020;
  BA0 : 4D545047;
  BA1 : 00002052;
  BA2 : 4C4F454E;
  BA3 : 00204445;
  BA4 : 57454E4F;
  BA5 : 20455249;
  BA6 : 00000000;
  BA7 : 204D5750;
  BA8 : 00000000;
  BA9 : 20494453;
  BAA : 00000000;
  BAB : 4E494C53;
  BAC : 0000204B;
  BAD : 20495053;
  BAE : 00000000;
  BAF : 49535953;
  BB0 : 204F464E;
  BB1 : 00000000;
  BB2 : 43415254;
  BB3 : 00205245;
  BB4 : 474E5254;
  BB5 : 00000020;
  BB6 : 20445754;
  BB7 : 00000000;
  BB8 : 20495754;
  BB9 : 00000000;
  BBA : 54524155;
  BBB : 00002030;
  BBC : 54524155;
  BBD : 00002031;
  BBE : 20544457;
  BBF : 00000000;
  BC0 : 00000A0A;
  BC1 : 20656854;
  BC2 : 524F454E;
  BC3 : 20323356;
  BC4 : 43534952;
  BC5 : 5020562D;
  BC6 : 65636F72;
  BC7 : 726F7373;
  BC8 : 6967202C;
  BC9 : 62756874;
  BCA : 6D6F632E;
  BCB : 6E74732F;
  BCC : 69746C6F;
  BCD : 6E2F676E;
  BCE : 76726F65;
  BCF : 430A3233;
  BD0 : 7279706F;
  BD1 : 74686769;
  BD2 : 29632820;
  BD3 : 4F454E20;
  BD4 : 32335652;
  BD5 : 6E6F6320;
  BD6 : 62697274;
  BD7 : 726F7475;
  BD8 : 430A2E73;
  BD9 : 7279706F;
  BDA : 74686769;
  BDB : 29632820;
  BDC : 32303220;
  BDD : 202D2030;
  BDE : 35323032;
  BDF : 7453202C;
  BE0 : 61687065;
  BE1 : 6F4E206E;
  BE2 : 6E69746C;
  BE3 : 41202E67;
  BE4 : 72206C6C;
  BE5 : 74686769;
  BE6 : 65722073;
  BE7 : 76726573;
  BE8 : 0A2E6465;
  BE9 : 58445053;
  BEA : 63694C2D;
  BEB : 65736E65;
  BEC : 6564492D;
  BED : 6669746E;
  BEE : 3A726569;
  BEF : 44534220;
  BF0 : 432D332D;
  BF1 : 7375616C;
  BF2 : 00000A65;
  BF3 : 00000000;
  BF4 : 00000000;
  BF5 : 03000000;
  BF6 : 60C7C630;
  BF7 : 87F8FC7F;
  BF8 : F87FC0C7;
  BF9 : FFFC8303;
  BFA : 00C0F0CC;
  BFB : C0CCCC0C;
  BFC : C30F0CC0;
  BFD : D8CC000F;
  BFE : CC0C00C0;
  BFF : 0C01C0C0;
  C00 : 1F8C8303;
  C01 : F8C0CCCF;
  C02 : C0C0CFF8;
  C03 : 030FF806;
  C04 : C6CC1F8F;
  C05 : CC1800C0;
  C06 : 0C186180;
  C07 : 1F8C0303;
  C08 : 00C0C3CC;
  C09 : 330CCC0C;
  C0A : 030F0C60;
  C0B : C187000F;
  C0C : 8C06FC7F;
  C0D : F8FF0C07;
  C0E : FFFCC303;
  C0F : 00000000;
  C10 : 00000000;
  C11 : 03000000;
  C12 : 0000C630;
  C13 : 4453420A;
  C14 : 432D3320;
  C15 : 7375616C;
  C16 : 694C2065;
  C17 : 736E6563;
  C18 : 430A0A65;
  C19 : 7279706F;
  C1A : 74686769;
  C1B : 29632820;
  C1C : 4F454E20;
  C1D : 32335652;
  C1E : 6E6F6320;
  C1F : 62697274;
  C20 : 726F7475;
  C21 : 430A2E73;
  C22 : 7279706F;
  C23 : 74686769;
  C24 : 29632820;
  C25 : 32303220;
  C26 : 202D2030;
  C27 : 35323032;
  C28 : 7453202C;
  C29 : 61687065;
  C2A : 6F4E206E;
  C2B : 6E69746C;
  C2C : 41202E67;
  C2D : 72206C6C;
  C2E : 74686769;
  C2F : 65722073;
  C30 : 76726573;
  C31 : 0A2E6465;
  C32 : 6465520A;
  C33 : 72747369;
  C34 : 74756269;
  C35 : 206E6F69;
  C36 : 20646E61;
  C37 : 20657375;
  C38 : 73206E69;
  C39 : 6372756F;
  C3A : 6E612065;
  C3B : 69622064;
  C3C : 7972616E;
  C3D : 726F6620;
  C3E : 202C736D;
  C3F : 68746977;
  C40 : 20726F20;
  C41 : 68746977;
  C42 : 2074756F;
  C43 : 69646F6D;
  C44 : 61636966;
  C45 : 6E6F6974;
  C46 : 7261202C;
  C47 : 65700A65;
  C48 : 74696D72;
  C49 : 20646574;
  C4A : 766F7270;
  C4B : 64656469;
  C4C : 61687420;
  C4D : 68742074;
  C4E : 6F662065;
  C4F : 776F6C6C;
  C50 : 20676E69;
  C51 : 646E6F63;
  C52 : 6F697469;
  C53 : 6120736E;
  C54 : 6D206572;
  C55 : 0A3A7465;
  C56 : 202E310A;
  C57 : 69646552;
  C58 : 69727473;
  C59 : 69747562;
  C5A : 20736E6F;
  C5B : 7320666F;
  C5C : 6372756F;
  C5D : 6F632065;
  C5E : 6D206564;
  C5F : 20747375;
  C60 : 61746572;
  C61 : 74206E69;
  C62 : 61206568;
  C63 : 65766F62;
  C64 : 706F6320;
  C65 : 67697279;
  C66 : 6E207468;
  C67 : 6369746F;
  C68 : 74202C65;
  C69 : 20736968;
  C6A : 7473696C;
  C6B : 0A666F20;
  C6C : 63202020;
  C6D : 69646E6F;
  C6E : 6E6F6974;
  C6F : 6E612073;
  C70 : 68742064;
  C71 : 6F662065;
  C72 : 776F6C6C;
  C73 : 20676E69;
  C74 : 63736964;
  C75 : 6D69616C;
  C76 : 0A2E7265;
  C77 : 202E320A;
  C78 : 69646552;
  C79 : 69727473;
  C7A : 69747562;
  C7B : 20736E6F;
  C7C : 62206E69;
  C7D : 72616E69;
  C7E : 6F662079;
  C7F : 6D206D72;
  C80 : 20747375;
  C81 : 72706572;
  C82 : 6375646F;
  C83 : 68742065;
  C84 : 62612065;
  C85 : 2065766F;
  C86 : 79706F63;
  C87 : 68676972;
  C88 : 6F6E2074;
  C89 : 65636974;
  C8A : 6874202C;
  C8B : 6C207369;
  C8C : 20747369;
  C8D : 200A666F;
  C8E : 6F632020;
  C8F : 7469646E;
  C90 : 736E6F69;
  C91 : 646E6120;
  C92 : 65687420;
  C93 : 6C6F6620;
  C94 : 69776F6C;
  C95 : 6420676E;
  C96 : 6C637369;
  C97 : 656D6961;
  C98 : 6E692072;
  C99 : 65687420;
  C9A : 636F6420;
  C9B : 6E656D75;
  C9C : 69746174;
  C9D : 61206E6F;
  C9E : 6F2F646E;
  C9F : 746F2072;
  CA0 : 20726568;
  CA1 : 6574616D;
  CA2 : 6C616972;
  CA3 : 20200A73;
  CA4 : 6F727020;
  CA5 : 65646976;
  CA6 : 69772064;
  CA7 : 74206874;
  CA8 : 64206568;
  CA9 : 72747369;
  CAA : 74756269;
  CAB : 2E6E6F69;
  CAC : 2E330A0A;
  CAD : 69654E20;
  CAE : 72656874;
  CAF : 65687420;
  CB0 : 6D616E20;
  CB1 : 666F2065;
  CB2 : 65687420;
  CB3 : 706F6320;
  CB4 : 67697279;
  CB5 : 68207468;
  CB6 : 65646C6F;
  CB7 : 6F6E2072;
  CB8 : 68742072;
  CB9 : 616E2065;
  CBA : 2073656D;
  CBB : 6920666F;
  CBC : 63207374;
  CBD : 72746E6F;
  CBE : 74756269;
  CBF : 2073726F;
  CC0 : 2079616D;
  CC1 : 75206562;
  CC2 : 20646573;
  CC3 : 200A6F74;
  CC4 : 6E652020;
  CC5 : 73726F64;
  CC6 : 726F2065;
  CC7 : 6F727020;
  CC8 : 65746F6D;
  CC9 : 6F727020;
  CCA : 74637564;
  CCB : 65642073;
  CCC : 65766972;
  CCD : 72662064;
  CCE : 74206D6F;
  CCF : 20736968;
  CD0 : 74666F73;
  CD1 : 65726177;
  CD2 : 74697720;
  CD3 : 74756F68;
  CD4 : 65707320;
  CD5 : 69666963;
  CD6 : 72702063;
  CD7 : 20726F69;
  CD8 : 74697277;
  CD9 : 0A6E6574;
  CDA : 70202020;
  CDB : 696D7265;
  CDC : 6F697373;
  CDD : 0A0A2E6E;
  CDE : 53494854;
  CDF : 464F5320;
  CE0 : 52415754;
  CE1 : 53492045;
  CE2 : 4F525020;
  CE3 : 45444956;
  CE4 : 59422044;
  CE5 : 45485420;
  CE6 : 504F4320;
  CE7 : 47495259;
  CE8 : 48205448;
  CE9 : 45444C4F;
  CEA : 41205352;
  CEB : 4320444E;
  CEC : 52544E4F;
  CED : 54554249;
  CEE : 2053524F;
  CEF : 20534122;
  CF0 : 20225349;
  CF1 : 20444E41;
  CF2 : 20594E41;
  CF3 : 52505845;
  CF4 : 0A535345;
  CF5 : 4920524F;
  CF6 : 494C504D;
  CF7 : 57204445;
  CF8 : 41525241;
  CF9 : 4549544E;
  CFA : 49202C53;
  CFB : 554C434E;
  CFC : 474E4944;
  CFD : 5542202C;
  CFE : 4F4E2054;
  CFF : 494C2054;
  D00 : 4554494D;
  D01 : 4F542044;
  D02 : 4854202C;
  D03 : 4D492045;
  D04 : 45494C50;
  D05 : 41572044;
  D06 : 4E415252;
  D07 : 53454954;
  D08 : 0A464F20;
  D09 : 4352454D;
  D0A : 544E4148;
  D0B : 4C494241;
  D0C : 20595449;
  D0D : 20444E41;
  D0E : 4E544946;
  D0F : 20535345;
  D10 : 20524F46;
  D11 : 41502041;
  D12 : 43495452;
  D13 : 52414C55;
  D14 : 52555020;
  D15 : 45534F50;
  D16 : 45524120;
  D17 : 53494420;
  D18 : 49414C43;
  D19 : 2E44454D;
  D1A : 204E4920;
  D1B : 45204F4E;
  D1C : 544E4556;
  D1D : 41485320;
  D1E : 54204C4C;
  D1F : 430A4548;
  D20 : 5259504F;
  D21 : 54484749;
  D22 : 4C4F4820;
  D23 : 20524544;
  D24 : 4320524F;
  D25 : 52544E4F;
  D26 : 54554249;
  D27 : 2053524F;
  D28 : 4C204542;
  D29 : 4C424149;
  D2A : 4F462045;
  D2B : 4E412052;
  D2C : 49442059;
  D2D : 54434552;
  D2E : 4E49202C;
  D2F : 45524944;
  D30 : 202C5443;
  D31 : 49434E49;
  D32 : 544E4544;
  D33 : 202C4C41;
  D34 : 43455053;
  D35 : 2C4C4149;
  D36 : 4558450A;
  D37 : 414C504D;
  D38 : 202C5952;
  D39 : 4320524F;
  D3A : 45534E4F;
  D3B : 4E455551;
  D3C : 4C414954;
  D3D : 4D414420;
  D3E : 53454741;
  D3F : 4E492820;
  D40 : 44554C43;
  D41 : 2C474E49;
  D42 : 54554220;
  D43 : 544F4E20;
  D44 : 4D494C20;
  D45 : 44455449;
  D46 : 2C4F5420;
  D47 : 4F525020;
  D48 : 45525543;
  D49 : 544E454D;
  D4A : 20464F20;
  D4B : 53425553;
  D4C : 55544954;
  D4D : 470A4554;
  D4E : 53444F4F;
  D4F : 20524F20;
  D50 : 56524553;
  D51 : 53454349;
  D52 : 4F4C203B;
  D53 : 4F205353;
  D54 : 53552046;
  D55 : 44202C45;
  D56 : 2C415441;
  D57 : 20524F20;
  D58 : 464F5250;
  D59 : 3B535449;
  D5A : 20524F20;
  D5B : 49535542;
  D5C : 5353454E;
  D5D : 544E4920;
  D5E : 55525245;
  D5F : 4F495450;
  D60 : 4820294E;
  D61 : 5645574F;
  D62 : 43205245;
  D63 : 45535541;
  D64 : 4E410A44;
  D65 : 4E4F2044;
  D66 : 594E4120;
  D67 : 45485420;
  D68 : 2059524F;
  D69 : 4C20464F;
  D6A : 49424149;
  D6B : 5954494C;
  D6C : 4857202C;
  D6D : 45485445;
  D6E : 4E492052;
  D6F : 4E4F4320;
  D70 : 43415254;
  D71 : 53202C54;
  D72 : 43495254;
  D73 : 494C2054;
  D74 : 4C494241;
  D75 : 2C595449;
  D76 : 20524F20;
  D77 : 54524F54;
  D78 : 4E492820;
  D79 : 44554C43;
  D7A : 0A474E49;
  D7B : 4C47454E;
  D7C : 4E454749;
  D7D : 4F204543;
  D7E : 544F2052;
  D7F : 57524548;
  D80 : 29455349;
  D81 : 49524120;
  D82 : 474E4953;
  D83 : 204E4920;
  D84 : 20594E41;
  D85 : 20594157;
  D86 : 2054554F;
  D87 : 5420464F;
  D88 : 55204548;
  D89 : 4F204553;
  D8A : 48542046;
  D8B : 53205349;
  D8C : 5754464F;
  D8D : 2C455241;
  D8E : 45564520;
  D8F : 4649204E;
  D90 : 56444120;
  D91 : 44455349;
  D92 : 20464F0A;
  D93 : 20454854;
  D94 : 53534F50;
  D95 : 4C494249;
  D96 : 20595449;
  D97 : 5320464F;
  D98 : 20484355;
  D99 : 414D4144;
  D9A : 0A2E4547;
  D9B : 4450530A;
  D9C : 694C2D58;
  D9D : 736E6563;
  D9E : 64492D65;
  D9F : 69746E65;
  DA0 : 72656966;
  DA1 : 5342203A;
  DA2 : 2D332D44;
  DA3 : 75616C43;
  DA4 : 0A0A6573;
  DA5 : 00000000;
  DA6 : 4F454E3C;
  DA7 : 32335652;
  DA8 : 4554522D;
  DA9 : 0000203E;
  DAA : 7570635B;
  DAB : 00007C31;
  DAC : 7570635B;
  DAD : 00007C30;
  DAE : 00205D4D;
  DAF : 00205D55;
  DB0 : 74736E49;
  DB1 : 74637572;
  DB2 : 206E6F69;
  DB3 : 65636361;
  DB4 : 66207373;
  DB5 : 746C7561;
  DB6 : 00000000;
  DB7 : 656C6C49;
  DB8 : 206C6167;
  DB9 : 74736E69;
  DBA : 74637572;
  DBB : 006E6F69;
  DBC : 74736E49;
  DBD : 74637572;
  DBE : 206E6F69;
  DBF : 72646461;
  DC0 : 20737365;
  DC1 : 6173696D;
  DC2 : 6E67696C;
  DC3 : 00006465;
  DC4 : 69766E45;
  DC5 : 6D6E6F72;
  DC6 : 20746E65;
  DC7 : 61657262;
  DC8 : 696F706B;
  DC9 : 0000746E;
  DCA : 64616F4C;
  DCB : 64646120;
  DCC : 73736572;
  DCD : 73696D20;
  DCE : 67696C61;
  DCF : 0064656E;
  DD0 : 64616F4C;
  DD1 : 63636120;
  DD2 : 20737365;
  DD3 : 6C756166;
  DD4 : 00000074;
  DD5 : 726F7453;
  DD6 : 64612065;
  DD7 : 73657264;
  DD8 : 696D2073;
  DD9 : 696C6173;
  DDA : 64656E67;
  DDB : 00000000;
  DDC : 726F7453;
  DDD : 63612065;
  DDE : 73736563;
  DDF : 75616620;
  DE0 : 0000746C;
  DE1 : 69766E45;
  DE2 : 6D6E6F72;
  DE3 : 20746E65;
  DE4 : 6C6C6163;
  DE5 : 6F726620;
  DE6 : 2D55206D;
  DE7 : 65646F6D;
  DE8 : 00000000;
  DE9 : 69766E45;
  DEA : 6D6E6F72;
  DEB : 20746E65;
  DEC : 6C6C6163;
  DED : 6F726620;
  DEE : 2D4D206D;
  DEF : 65646F6D;
  DF0 : 00000000;
  DF1 : 6863614D;
  DF2 : 20656E69;
  DF3 : 74666F73;
  DF4 : 65726177;
  DF5 : 51524920;
  DF6 : 00000000;
  DF7 : 6863614D;
  DF8 : 20656E69;
  DF9 : 656D6974;
  DFA : 52492072;
  DFB : 00000051;
  DFC : 6863614D;
  DFD : 20656E69;
  DFE : 65747865;
  DFF : 6C616E72;
  E00 : 51524920;
  E01 : 00000000;
  E02 : 74736146;
  E03 : 51524920;
  E04 : 00000020;
  E05 : 6E6B6E55;
  E06 : 206E776F;
  E07 : 70617274;
  E08 : 75616320;
  E09 : 00206573;
  E0A : 50454D20;
  E0B : 00003D43;
  E0C : 49544D20;
  E0D : 3D54534E;
  E0E : 00000000;
  E0F : 56544D20;
  E10 : 003D4C41;
  E11 : 73694420;
  E12 : 696C6261;
  E13 : 4920676E;
  E14 : 73205152;
  E15 : 6372756F;
  E16 : 00000065;
  E17 : 41465B20;
  E18 : 214C4154;
  E19 : 6148205D;
  E1A : 6E69746C;
  E1B : 50432067;
  E1C : 2F3C2055;
  E1D : 524F454E;
  E1E : 2D323356;
  E1F : 3E455452;
  E20 : 0000000A;
  E21 : 4E2F3C20;
  E22 : 56524F45;
  E23 : 522D3233;
  E24 : 0A3E4554;
  E25 : 00000000;
  E26 : 33323130;
  E27 : 37363534;
  E28 : 42413938;
  E29 : 46454443;
  E2A : 00000000;
  E2B : 710023F8;
  E2C : 710023D8;
  E2D : 710023E8;
  E2E : 71002408;
  E2F : 71002418;
  E30 : 71002428;
  E31 : 71002438;
  E32 : 71002448;
  E33 : 71002458;
  E34 : 710024C4;
  E35 : 710024C4;
  E36 : 71002468;
  E37 : 20202000;
  E38 : 20202020;
  E39 : 28282020;
  E3A : 20282828;
  E3B : 20202020;
  E3C : 20202020;
  E3D : 20202020;
  E3E : 20202020;
  E3F : 10108820;
  E40 : 10101010;
  E41 : 10101010;
  E42 : 10101010;
  E43 : 04040410;
  E44 : 04040404;
  E45 : 10040404;
  E46 : 10101010;
  E47 : 41411010;
  E48 : 41414141;
  E49 : 01010101;
  E4A : 01010101;
  E4B : 01010101;
  E4C : 01010101;
  E4D : 01010101;
  E4E : 10101010;
  E4F : 42421010;
  E50 : 42424242;
  E51 : 02020202;
  E52 : 02020202;
  E53 : 02020202;
  E54 : 02020202;
  E55 : 02020202;
  E56 : 10101010;
  E57 : 00000020;
  E58 : 00000000;
  E59 : 00000000;
  E5A : 00000000;
  E5B : 00000000;
  E5C : 00000000;
  E5D : 00000000;
  E5E : 00000000;
  E5F : 00000000;
  E60 : 00000000;
  E61 : 00000000;
  E62 : 00000000;
  E63 : 00000000;
  E64 : 00000000;
  E65 : 00000000;
  E66 : 00000000;
  E67 : 00000000;
  E68 : 00000000;
  E69 : 00000000;
  E6A : 00000000;
  E6B : 00000000;
  E6C : 00000000;
  E6D : 00000000;
  E6E : 00000000;
  E6F : 00000000;
  E70 : 00000000;
  E71 : 00000000;
  E72 : 00000000;
  E73 : 00000000;
  E74 : 00000000;
  E75 : 00000000;
  E76 : 00000000;
  E77 : 00000000;
END;
