WIDTH=32;
DEPTH=3924;

ADDRESS_RADIX=HEX;
DATA_RADIX=HEX;

CONTENT BEGIN
  00 : 0F004F97;
  01 : 000F8F93;
  02 : 0F004117;
  03 : FF810113;
  04 : 00C000EF;
  05 : 00050F93;
  06 : 0000006F;
  07 : FE010113;
  08 : 00112E23;
  09 : 00812C23;
  0A : 02010413;
  0B : FE042623;
  0C : FE042423;
  0D : FE042223;
  0E : 7B0020EF;
  0F : 00000613;
  10 : 0001C7B7;
  11 : 20078593;
  12 : FFF50537;
  13 : 0F4000EF;
  14 : 0AD020EF;
  15 : FEA42623;
  16 : 0C9010EF;
  17 : 0AD000EF;
  18 : 710037B7;
  19 : ACC78593;
  1A : FFF50537;
  1B : 288000EF;
  1C : FEC42603;
  1D : 710037B7;
  1E : AE478593;
  1F : FFF50537;
  20 : 5C8000EF;
  21 : 000017B7;
  22 : 9C478593;
  23 : 03B9B7B7;
  24 : CA078513;
  25 : 620000EF;
  26 : FC1FF06F;
  27 : FE010113;
  28 : 00812E23;
  29 : 02010413;
  2A : FEA42623;
  2B : FEC42783;
  2C : 00178713;
  2D : 710047B7;
  2E : C4C78793;
  2F : 00F707B3;
  30 : 0007C783;
  31 : 00078513;
  32 : 01C12403;
  33 : 02010113;
  34 : 00008067;
  35 : FE010113;
  36 : 00812E23;
  37 : 02010413;
  38 : FEA42623;
  39 : FEC42703;
  3A : FFF507B7;
  3B : 00F71E63;
  3C : FFFE07B7;
  3D : 0087A783;
  3E : 00078713;
  3F : 000207B7;
  40 : 00F777B3;
  41 : 02C0006F;
  42 : FEC42703;
  43 : FFF607B7;
  44 : 00F71E63;
  45 : FFFE07B7;
  46 : 0087A783;
  47 : 00078713;
  48 : 020007B7;
  49 : 00F777B3;
  4A : 0080006F;
  4B : 00000793;
  4C : 00078513;
  4D : 01C12403;
  4E : 02010113;
  4F : 00008067;
  50 : FD010113;
  51 : 02112623;
  52 : 02812423;
  53 : 03010413;
  54 : FCA42E23;
  55 : FCB42C23;
  56 : FCC42A23;
  57 : FE042623;
  58 : FE042423;
  59 : FDC42783;
  5A : 0007A023;
  5B : FFFE07B7;
  5C : 0007A783;
  5D : FEF42223;
  5E : FD842783;
  5F : 00179793;
  60 : 00078593;
  61 : FE442503;
  62 : 059020EF;
  63 : 00050793;
  64 : FEF42423;
  65 : 0440006F;
  66 : FEC42703;
  67 : 00200793;
  68 : 00F70863;
  69 : FEC42703;
  6A : 00400793;
  6B : 00F71A63;
  6C : FE842783;
  6D : 0037D793;
  6E : FEF42423;
  6F : 0100006F;
  70 : FE842783;
  71 : 0017D793;
  72 : FEF42423;
  73 : FEC42783;
  74 : 00178793;
  75 : FEF42623;
  76 : FE842703;
  77 : 3FE00793;
  78 : FAE7ECE3;
  79 : FE042023;
  7A : FE042783;
  7B : 0017E793;
  7C : FEF42023;
  7D : FEC42783;
  7E : 00379793;
  7F : 0187F793;
  80 : FE042703;
  81 : 00F767B3;
  82 : FEF42023;
  83 : FE842783;
  84 : FFF78793;
  85 : 00679713;
  86 : 000107B7;
  87 : FFF78793;
  88 : 00F777B3;
  89 : FE042703;
  8A : 00F767B3;
  8B : FEF42023;
  8C : FD442703;
  8D : 00F007B7;
  8E : 00F777B3;
  8F : FE042703;
  90 : 00F767B3;
  91 : FEF42023;
  92 : FDC42783;
  93 : FE042703;
  94 : 00E7A023;
  95 : 00000013;
  96 : 02C12083;
  97 : 02812403;
  98 : 03010113;
  99 : 00008067;
  9A : FE010113;
  9B : 00112E23;
  9C : 00812C23;
  9D : 02010413;
  9E : FEA42623;
  9F : 00058793;
  A0 : FEF405A3;
  A1 : 00000013;
  A2 : FEC42783;
  A3 : 0007A703;
  A4 : 000807B7;
  A5 : 00F777B3;
  A6 : FE0788E3;
  A7 : FEB44783;
  A8 : 00078593;
  A9 : FEC42503;
  AA : 018000EF;
  AB : 00000013;
  AC : 01C12083;
  AD : 01812403;
  AE : 02010113;
  AF : 00008067;
  B0 : FE010113;
  B1 : 00812E23;
  B2 : 02010413;
  B3 : FEA42623;
  B4 : 00058793;
  B5 : FEF405A3;
  B6 : FEB44703;
  B7 : FEC42783;
  B8 : 00E7A223;
  B9 : 00000013;
  BA : 01C12403;
  BB : 02010113;
  BC : 00008067;
  BD : FD010113;
  BE : 02112623;
  BF : 02812423;
  C0 : 03010413;
  C1 : FCA42E23;
  C2 : FCB42C23;
  C3 : FE0407A3;
  C4 : 02C0006F;
  C5 : FEF44703;
  C6 : 00A00793;
  C7 : 00F71863;
  C8 : 00D00593;
  C9 : FDC42503;
  CA : F41FF0EF;
  CB : FEF44783;
  CC : 00078593;
  CD : FDC42503;
  CE : F31FF0EF;
  CF : FD842783;
  D0 : 00178713;
  D1 : FCE42C23;
  D2 : 0007C783;
  D3 : FEF407A3;
  D4 : FEF44783;
  D5 : FC0790E3;
  D6 : 00000013;
  D7 : 00000013;
  D8 : 02C12083;
  D9 : 02812403;
  DA : 03010113;
  DB : 00008067;
  DC : FB010113;
  DD : 04112623;
  DE : 04812423;
  DF : 05010413;
  E0 : FAA42E23;
  E1 : FAB42C23;
  E2 : FAC42A23;
  E3 : FE0403A3;
  E4 : FE042623;
  E5 : FE042423;
  E6 : FE042423;
  E7 : 0200006F;
  E8 : FE842783;
  E9 : FF078793;
  EA : 008787B3;
  EB : FC078823;
  EC : FE842783;
  ED : 00178793;
  EE : FEF42423;
  EF : FE842703;
  F0 : 02300793;
  F1 : FCE7FEE3;
  F2 : 24C0006F;
  F3 : FE744703;
  F4 : 02500793;
  F5 : 20F71C63;
  F6 : FB842783;
  F7 : 00178713;
  F8 : FAE42C23;
  F9 : 0007C783;
  FA : FEF40323;
  FB : FE644783;
  FC : 00078513;
  FD : CA9FF0EF;
  FE : 00050793;
  FF : 0037F713;
  100 : 00100793;
  101 : 00F71863;
  102 : FE644783;
  103 : 02078793;
  104 : 0080006F;
  105 : FE644783;
  106 : FEF403A3;
  107 : FE744783;
  108 : 02500713;
  109 : 18E78863;
  10A : 02500713;
  10B : 18E7CE63;
  10C : 07800713;
  10D : 18F74A63;
  10E : 06300713;
  10F : 18E7C663;
  110 : F9D78793;
  111 : 01500713;
  112 : 18F76063;
  113 : 00279713;
  114 : 710037B7;
  115 : B0878793;
  116 : 00F707B3;
  117 : 0007A783;
  118 : 00078067;
  119 : FB442783;
  11A : 00478713;
  11B : FAE42A23;
  11C : 0007A783;
  11D : 00078593;
  11E : FBC42503;
  11F : E79FF0EF;
  120 : 1940006F;
  121 : FB442783;
  122 : 00478713;
  123 : FAE42A23;
  124 : 0007A783;
  125 : 0FF7F793;
  126 : 00078593;
  127 : FBC42503;
  128 : DC9FF0EF;
  129 : 1700006F;
  12A : FB442783;
  12B : 00478713;
  12C : FAE42A23;
  12D : 0007A783;
  12E : FEF42623;
  12F : FEC42783;
  130 : 0007DE63;
  131 : FEC42783;
  132 : 40F007B3;
  133 : FEF42623;
  134 : 02D00593;
  135 : FBC42503;
  136 : D91FF0EF;
  137 : FEC42703;
  138 : FC040793;
  139 : 00A00613;
  13A : 00070593;
  13B : 00078513;
  13C : 27C000EF;
  13D : FC040793;
  13E : 00078593;
  13F : FBC42503;
  140 : DF5FF0EF;
  141 : 1100006F;
  142 : FB442783;
  143 : 00478713;
  144 : FAE42A23;
  145 : 0007A703;
  146 : FC040793;
  147 : 00A00613;
  148 : 00070593;
  149 : 00078513;
  14A : 244000EF;
  14B : FC040793;
  14C : 00078593;
  14D : FBC42503;
  14E : DBDFF0EF;
  14F : 0D80006F;
  150 : FB442783;
  151 : 00478713;
  152 : FAE42A23;
  153 : 0007A703;
  154 : FC040793;
  155 : 01000613;
  156 : 00070593;
  157 : 00078513;
  158 : 20C000EF;
  159 : FC040793;
  15A : 00078513;
  15B : 544020EF;
  15C : 00050713;
  15D : 00800793;
  15E : 40E787B3;
  15F : FEF42423;
  160 : 0100006F;
  161 : 03000593;
  162 : FBC42503;
  163 : CDDFF0EF;
  164 : FE842783;
  165 : FFF78713;
  166 : FEE42423;
  167 : FE0794E3;
  168 : FC040793;
  169 : 00078593;
  16A : FBC42503;
  16B : D49FF0EF;
  16C : 0640006F;
  16D : FE744783;
  16E : 00078593;
  16F : FBC42503;
  170 : CA9FF0EF;
  171 : 0500006F;
  172 : 02500593;
  173 : FBC42503;
  174 : C99FF0EF;
  175 : FE744783;
  176 : 00078593;
  177 : FBC42503;
  178 : C89FF0EF;
  179 : 00000013;
  17A : 02C0006F;
  17B : FE744703;
  17C : 00A00793;
  17D : 00F71863;
  17E : 00D00593;
  17F : FBC42503;
  180 : C69FF0EF;
  181 : FE744783;
  182 : 00078593;
  183 : FBC42503;
  184 : C59FF0EF;
  185 : FB842783;
  186 : 00178713;
  187 : FAE42C23;
  188 : 0007C783;
  189 : FEF403A3;
  18A : FE744783;
  18B : DA0790E3;
  18C : 00000013;
  18D : 00000013;
  18E : 04C12083;
  18F : 04812403;
  190 : 05010113;
  191 : 00008067;
  192 : FB010113;
  193 : 02112623;
  194 : 02812423;
  195 : 03010413;
  196 : FCA42E23;
  197 : FCB42C23;
  198 : 00C42423;
  199 : 00D42623;
  19A : 00E42823;
  19B : 00F42A23;
  19C : 01042C23;
  19D : 01142E23;
  19E : 02040793;
  19F : FCF42A23;
  1A0 : FD442783;
  1A1 : FE878793;
  1A2 : FEF42623;
  1A3 : FEC42783;
  1A4 : 00078613;
  1A5 : FD842583;
  1A6 : FDC42503;
  1A7 : CD5FF0EF;
  1A8 : 00000013;
  1A9 : 02C12083;
  1AA : 02812403;
  1AB : 05010113;
  1AC : 00008067;
  1AD : FC010113;
  1AE : 02112E23;
  1AF : 02812C23;
  1B0 : 03212A23;
  1B1 : 03312823;
  1B2 : 04010413;
  1B3 : FCA42623;
  1B4 : FCB42423;
  1B5 : FCC42583;
  1B6 : 00A5D593;
  1B7 : FEB42623;
  1B8 : FEC42583;
  1B9 : 00058713;
  1BA : 00000793;
  1BB : FC842583;
  1BC : 00058613;
  1BD : 00000693;
  1BE : 00070513;
  1BF : 00078593;
  1C0 : 24C020EF;
  1C1 : 00050713;
  1C2 : 00058793;
  1C3 : FEE42023;
  1C4 : FEF42223;
  1C5 : FE442783;
  1C6 : 01C79793;
  1C7 : FE042703;
  1C8 : 00475913;
  1C9 : 0127E933;
  1CA : FE442783;
  1CB : 0047D993;
  1CC : FD242E23;
  1CD : FDC42783;
  1CE : 00078A63;
  1CF : 00001863;
  1D0 : FFF78793;
  1D1 : 00000013;
  1D2 : FF1FF06F;
  1D3 : FCF42E23;
  1D4 : 00000013;
  1D5 : 03C12083;
  1D6 : 03812403;
  1D7 : 03412903;
  1D8 : 03012983;
  1D9 : 04010113;
  1DA : 00008067;
  1DB : FA010113;
  1DC : 04112E23;
  1DD : 04812C23;
  1DE : 06010413;
  1DF : FAA42623;
  1E0 : FAB42423;
  1E1 : FAC42223;
  1E2 : 710037B7;
  1E3 : B6078793;
  1E4 : 0007A603;
  1E5 : 0047A683;
  1E6 : 0087A703;
  1E7 : 00C7A783;
  1E8 : FCC42C23;
  1E9 : FCD42E23;
  1EA : FEE42023;
  1EB : FEF42223;
  1EC : FE042623;
  1ED : FE042423;
  1EE : FE042423;
  1EF : 0200006F;
  1F0 : FE842783;
  1F1 : FF078793;
  1F2 : 008787B3;
  1F3 : FC078223;
  1F4 : FE842783;
  1F5 : 00178793;
  1F6 : FEF42423;
  1F7 : FE842703;
  1F8 : 02300793;
  1F9 : FCE7FEE3;
  1FA : FA442703;
  1FB : 00100793;
  1FC : 00E7F863;
  1FD : FA442703;
  1FE : 01000793;
  1FF : 00E7F863;
  200 : FAC42783;
  201 : 00078023;
  202 : 0F00006F;
  203 : FE042423;
  204 : 0200006F;
  205 : FE842783;
  206 : FF078793;
  207 : 008787B3;
  208 : FC078223;
  209 : FE842783;
  20A : 00178793;
  20B : FEF42423;
  20C : FE842703;
  20D : 02300793;
  20E : FCE7FEE3;
  20F : FB440793;
  210 : 02378793;
  211 : FEF42623;
  212 : FEC42783;
  213 : FFF78793;
  214 : FEF42623;
  215 : FA842783;
  216 : FA442583;
  217 : 00078513;
  218 : 1C8020EF;
  219 : 00050793;
  21A : FF078793;
  21B : 008787B3;
  21C : FE87C703;
  21D : FEC42783;
  21E : 00E78023;
  21F : FA442583;
  220 : FA842503;
  221 : 15C020EF;
  222 : 00050793;
  223 : FAF42423;
  224 : FA842783;
  225 : FA079AE3;
  226 : FE042423;
  227 : 0480006F;
  228 : FE842783;
  229 : FF078793;
  22A : 008787B3;
  22B : FC47C783;
  22C : 02078463;
  22D : FE842783;
  22E : FF078793;
  22F : 008787B3;
  230 : FC47C703;
  231 : FAC42783;
  232 : 00E78023;
  233 : FAC42783;
  234 : 00178793;
  235 : FAF42623;
  236 : FE842783;
  237 : 00178793;
  238 : FEF42423;
  239 : FE842703;
  23A : 02300793;
  23B : FAE7FAE3;
  23C : FAC42783;
  23D : 00078023;
  23E : 05C12083;
  23F : 05812403;
  240 : 06010113;
  241 : 00008067;
  242 : F6010113;
  243 : 08112E23;
  244 : 08812C23;
  245 : 0A010413;
  246 : FFF50537;
  247 : FB8FF0EF;
  248 : 00050793;
  249 : 00079463;
  24A : 6E90006F;
  24B : FE042423;
  24C : FE042623;
  24D : 710037B7;
  24E : B7078593;
  24F : FFF50537;
  250 : D09FF0EF;
  251 : 710037B7;
  252 : B9C78593;
  253 : FFF50537;
  254 : CF9FF0EF;
  255 : FFFE07B7;
  256 : 0087A783;
  257 : 0007DC63;
  258 : 710037B7;
  259 : BB478593;
  25A : FFF50537;
  25B : CDDFF0EF;
  25C : 0140006F;
  25D : 710037B7;
  25E : BBC78593;
  25F : FFF50537;
  260 : CC9FF0EF;
  261 : FFFE07B7;
  262 : 0047A783;
  263 : 0107D793;
  264 : 00F7F793;
  265 : 00078613;
  266 : 710037B7;
  267 : BC078593;
  268 : FFF50537;
  269 : CA5FF0EF;
  26A : FFFE07B7;
  26B : 0007A783;
  26C : 00078613;
  26D : 710037B7;
  26E : BDC78593;
  26F : FFF50537;
  270 : C89FF0EF;
  271 : 710037B7;
  272 : BF878593;
  273 : FFF50537;
  274 : C79FF0EF;
  275 : FFFE07B7;
  276 : 0087A783;
  277 : 0107F793;
  278 : 04078E63;
  279 : 710037B7;
  27A : C1078593;
  27B : FFF50537;
  27C : C59FF0EF;
  27D : FFFE07B7;
  27E : 0087A703;
  27F : 000017B7;
  280 : 80078793;
  281 : 00F777B3;
  282 : 00078A63;
  283 : 710037B7;
  284 : C1878593;
  285 : FFF50537;
  286 : C31FF0EF;
  287 : 6B0010EF;
  288 : 00050793;
  289 : 00078613;
  28A : 710037B7;
  28B : C2C78593;
  28C : FFF50537;
  28D : C15FF0EF;
  28E : 0140006F;
  28F : 710037B7;
  290 : C4078593;
  291 : FFF50537;
  292 : C01FF0EF;
  293 : F14027F3;
  294 : FAF42A23;
  295 : FB442603;
  296 : F11027F3;
  297 : FAF42C23;
  298 : FB842683;
  299 : F12027F3;
  29A : FAF42E23;
  29B : FBC42703;
  29C : F13027F3;
  29D : FCF42023;
  29E : FC042783;
  29F : 710035B7;
  2A0 : C4C58593;
  2A1 : FFF50537;
  2A2 : BC1FF0EF;
  2A3 : F13027F3;
  2A4 : FCF42223;
  2A5 : FC442783;
  2A6 : 00078513;
  2A7 : 589000EF;
  2A8 : 710037B7;
  2A9 : CB878593;
  2AA : FFF50537;
  2AB : B9DFF0EF;
  2AC : 710037B7;
  2AD : CBC78593;
  2AE : FFF50537;
  2AF : B8DFF0EF;
  2B0 : 301027F3;
  2B1 : FCF42423;
  2B2 : FC842783;
  2B3 : FEF42423;
  2B4 : FE842783;
  2B5 : 01E7D793;
  2B6 : FEF42423;
  2B7 : FE842703;
  2B8 : 00100793;
  2B9 : 00F71C63;
  2BA : 710037B7;
  2BB : CD478593;
  2BC : FFF50537;
  2BD : B55FF0EF;
  2BE : 0140006F;
  2BF : 710037B7;
  2C0 : CE078593;
  2C1 : FFF50537;
  2C2 : B41FF0EF;
  2C3 : 710037B7;
  2C4 : CE878593;
  2C5 : FFF50537;
  2C6 : B31FF0EF;
  2C7 : 301027F3;
  2C8 : FAF42823;
  2C9 : FB042783;
  2CA : FEF42423;
  2CB : FE042623;
  2CC : 0540006F;
  2CD : FEC42783;
  2CE : 00100713;
  2CF : 00F717B3;
  2D0 : 00078713;
  2D1 : FE842783;
  2D2 : 00F777B3;
  2D3 : 02078663;
  2D4 : FEC42783;
  2D5 : 0FF7F793;
  2D6 : 04178793;
  2D7 : 0FF7F793;
  2D8 : 00078593;
  2D9 : FFF50537;
  2DA : F00FF0EF;
  2DB : 02000593;
  2DC : FFF50537;
  2DD : EF4FF0EF;
  2DE : FEC42783;
  2DF : 00178793;
  2E0 : FEF42623;
  2E1 : FEC42703;
  2E2 : 01900793;
  2E3 : FAE7D4E3;
  2E4 : FC0027F3;
  2E5 : FAF42623;
  2E6 : FAC42783;
  2E7 : FEF42423;
  2E8 : FE842703;
  2E9 : 020007B7;
  2EA : 00F777B3;
  2EB : 00078A63;
  2EC : 710037B7;
  2ED : D0078593;
  2EE : FFF50537;
  2EF : A8DFF0EF;
  2F0 : FE842703;
  2F1 : 040007B7;
  2F2 : 00F777B3;
  2F3 : 00078A63;
  2F4 : 710037B7;
  2F5 : D0878593;
  2F6 : FFF50537;
  2F7 : A6DFF0EF;
  2F8 : FE842703;
  2F9 : 100007B7;
  2FA : 00F777B3;
  2FB : 00078A63;
  2FC : 710037B7;
  2FD : D1078593;
  2FE : FFF50537;
  2FF : A4DFF0EF;
  300 : FE842703;
  301 : 080007B7;
  302 : 00F777B3;
  303 : 00078A63;
  304 : 710037B7;
  305 : D1878593;
  306 : FFF50537;
  307 : A2DFF0EF;
  308 : FE842703;
  309 : 004007B7;
  30A : 00F777B3;
  30B : 00078A63;
  30C : 710037B7;
  30D : D2078593;
  30E : FFF50537;
  30F : A0DFF0EF;
  310 : FE842703;
  311 : 008007B7;
  312 : 00F777B3;
  313 : 00078A63;
  314 : 710037B7;
  315 : D2878593;
  316 : FFF50537;
  317 : 9EDFF0EF;
  318 : FE842703;
  319 : 000107B7;
  31A : 00F777B3;
  31B : 00078A63;
  31C : 710037B7;
  31D : D3078593;
  31E : FFF50537;
  31F : 9CDFF0EF;
  320 : FE842703;
  321 : 000207B7;
  322 : 00F777B3;
  323 : 00078A63;
  324 : 710037B7;
  325 : D3878593;
  326 : FFF50537;
  327 : 9ADFF0EF;
  328 : FE842703;
  329 : 000017B7;
  32A : 00F777B3;
  32B : 00078A63;
  32C : 710037B7;
  32D : D4078593;
  32E : FFF50537;
  32F : 98DFF0EF;
  330 : FE842703;
  331 : 010007B7;
  332 : 00F777B3;
  333 : 00078A63;
  334 : 710037B7;
  335 : D4878593;
  336 : FFF50537;
  337 : 96DFF0EF;
  338 : FE842783;
  339 : 0207F793;
  33A : 00078A63;
  33B : 710037B7;
  33C : D5078593;
  33D : FFF50537;
  33E : 951FF0EF;
  33F : FE842703;
  340 : 200007B7;
  341 : 00F777B3;
  342 : 00078A63;
  343 : 710037B7;
  344 : D5878593;
  345 : FFF50537;
  346 : 931FF0EF;
  347 : FE842783;
  348 : 0807F793;
  349 : 00078A63;
  34A : 710037B7;
  34B : D6078593;
  34C : FFF50537;
  34D : 915FF0EF;
  34E : FE842783;
  34F : 0407F793;
  350 : 00078A63;
  351 : 710037B7;
  352 : D6878593;
  353 : FFF50537;
  354 : 8F9FF0EF;
  355 : FE842783;
  356 : 0017F793;
  357 : 00078A63;
  358 : 710037B7;
  359 : D7078593;
  35A : FFF50537;
  35B : 8DDFF0EF;
  35C : FE842783;
  35D : 0027F793;
  35E : 00078A63;
  35F : 710037B7;
  360 : D7878593;
  361 : FFF50537;
  362 : 8C1FF0EF;
  363 : FE842783;
  364 : 2007F793;
  365 : 00078A63;
  366 : 710037B7;
  367 : D8478593;
  368 : FFF50537;
  369 : 8A5FF0EF;
  36A : FE842703;
  36B : 400007B7;
  36C : 00F777B3;
  36D : 00078A63;
  36E : 710037B7;
  36F : D8C78593;
  370 : FFF50537;
  371 : 885FF0EF;
  372 : FE842703;
  373 : 000407B7;
  374 : 00F777B3;
  375 : 00078A63;
  376 : 710037B7;
  377 : D9478593;
  378 : FFF50537;
  379 : 865FF0EF;
  37A : FE842703;
  37B : 000027B7;
  37C : 00F777B3;
  37D : 00078A63;
  37E : 710037B7;
  37F : D9C78593;
  380 : FFF50537;
  381 : 845FF0EF;
  382 : FE842703;
  383 : 000047B7;
  384 : 00F777B3;
  385 : 00078A63;
  386 : 710037B7;
  387 : DA478593;
  388 : FFF50537;
  389 : 825FF0EF;
  38A : FE842703;
  38B : 000087B7;
  38C : 00F777B3;
  38D : 00078A63;
  38E : 710037B7;
  38F : DAC78593;
  390 : FFF50537;
  391 : 805FF0EF;
  392 : FE842703;
  393 : 002007B7;
  394 : 00F777B3;
  395 : 00078A63;
  396 : 710037B7;
  397 : DB478593;
  398 : FFF50537;
  399 : FE4FF0EF;
  39A : FE842703;
  39B : 001007B7;
  39C : 00F777B3;
  39D : 00078A63;
  39E : 710037B7;
  39F : DBC78593;
  3A0 : FFF50537;
  3A1 : FC4FF0EF;
  3A2 : FE842703;
  3A3 : 000807B7;
  3A4 : 00F777B3;
  3A5 : 00078A63;
  3A6 : 710037B7;
  3A7 : DC478593;
  3A8 : FFF50537;
  3A9 : FA4FF0EF;
  3AA : FE842783;
  3AB : 0107F793;
  3AC : 00078A63;
  3AD : 710037B7;
  3AE : DCC78593;
  3AF : FFF50537;
  3B0 : F88FF0EF;
  3B1 : FE842783;
  3B2 : 0047F793;
  3B3 : 00078A63;
  3B4 : 710037B7;
  3B5 : DD478593;
  3B6 : FFF50537;
  3B7 : F6CFF0EF;
  3B8 : FE842783;
  3B9 : 4007F793;
  3BA : 00078A63;
  3BB : 710037B7;
  3BC : DDC78593;
  3BD : FFF50537;
  3BE : F50FF0EF;
  3BF : FE842703;
  3C0 : 000017B7;
  3C1 : 80078793;
  3C2 : 00F777B3;
  3C3 : 00078A63;
  3C4 : 710037B7;
  3C5 : DE478593;
  3C6 : FFF50537;
  3C7 : F2CFF0EF;
  3C8 : FE842783;
  3C9 : 0007DA63;
  3CA : 710037B7;
  3CB : DEC78593;
  3CC : FFF50537;
  3CD : F14FF0EF;
  3CE : FE842783;
  3CF : 1007F793;
  3D0 : 00078A63;
  3D1 : 710037B7;
  3D2 : DF878593;
  3D3 : FFF50537;
  3D4 : EF8FF0EF;
  3D5 : FE842783;
  3D6 : 0087F793;
  3D7 : 00078A63;
  3D8 : 710037B7;
  3D9 : E0078593;
  3DA : FFF50537;
  3DB : EDCFF0EF;
  3DC : 710037B7;
  3DD : E0878593;
  3DE : FFF50537;
  3DF : ECCFF0EF;
  3E0 : 2ED000EF;
  3E1 : FEA42223;
  3E2 : FE442783;
  3E3 : 14078263;
  3E4 : 46D000EF;
  3E5 : 00050793;
  3E6 : 00078693;
  3E7 : FE442603;
  3E8 : 710037B7;
  3E9 : E2078593;
  3EA : FFF50537;
  3EB : E9CFF0EF;
  3EC : FA042223;
  3ED : FA442783;
  3EE : FAF42023;
  3EF : FA042783;
  3F0 : 3A079073;
  3F1 : 00000013;
  3F2 : 3A0027F3;
  3F3 : FAF42423;
  3F4 : FA842783;
  3F5 : 0FF7F793;
  3F6 : 00079A63;
  3F7 : 710037B7;
  3F8 : E4C78593;
  3F9 : FFF50537;
  3FA : E60FF0EF;
  3FB : 00800793;
  3FC : F8F42C23;
  3FD : F9842783;
  3FE : F8F42A23;
  3FF : F9442783;
  400 : 3A079073;
  401 : 00000013;
  402 : 3A0027F3;
  403 : F8F42E23;
  404 : F9C42783;
  405 : 0FF7F713;
  406 : 00800793;
  407 : 00F71A63;
  408 : 710037B7;
  409 : E5478593;
  40A : FFF50537;
  40B : E1CFF0EF;
  40C : 01000793;
  40D : F8F42623;
  40E : F8C42783;
  40F : F8F42423;
  410 : F8842783;
  411 : 3A079073;
  412 : 00000013;
  413 : 3A0027F3;
  414 : F8F42823;
  415 : F9042783;
  416 : 0FF7F713;
  417 : 01000793;
  418 : 00F71A63;
  419 : 710037B7;
  41A : E5C78593;
  41B : FFF50537;
  41C : DD8FF0EF;
  41D : 01800793;
  41E : F8F42023;
  41F : F8042783;
  420 : F6F42E23;
  421 : F7C42783;
  422 : 3A079073;
  423 : 00000013;
  424 : 3A0027F3;
  425 : F8F42223;
  426 : F8442783;
  427 : 0FF7F713;
  428 : 01800793;
  429 : 00F71A63;
  42A : 710037B7;
  42B : E6478593;
  42C : FFF50537;
  42D : D94FF0EF;
  42E : F6042C23;
  42F : F7842783;
  430 : F6F42A23;
  431 : F7442783;
  432 : 3A079073;
  433 : 0140006F;
  434 : 710037B7;
  435 : E6C78593;
  436 : FFF50537;
  437 : D6CFF0EF;
  438 : 710037B7;
  439 : E7478593;
  43A : FFF50537;
  43B : D5CFF0EF;
  43C : 3D9000EF;
  43D : FEA42023;
  43E : FE042783;
  43F : 02078463;
  440 : 6C9000EF;
  441 : 00050793;
  442 : 00078693;
  443 : FE042603;
  444 : 710037B7;
  445 : E8C78593;
  446 : FFF50537;
  447 : D2CFF0EF;
  448 : 0140006F;
  449 : 710037B7;
  44A : E6C78593;
  44B : FFF50537;
  44C : D18FF0EF;
  44D : 710037B7;
  44E : EAC78593;
  44F : FFF50537;
  450 : D08FF0EF;
  451 : FFFE07B7;
  452 : 0047A783;
  453 : 0147D793;
  454 : 0037F793;
  455 : FCF42E23;
  456 : FDC42703;
  457 : 00200793;
  458 : 04F70863;
  459 : FDC42703;
  45A : 00200793;
  45B : 04E7CC63;
  45C : FDC42783;
  45D : 00078A63;
  45E : FDC42703;
  45F : 00100793;
  460 : 00F70E63;
  461 : 0400006F;
  462 : 710037B7;
  463 : EC478593;
  464 : FFF50537;
  465 : CB4FF0EF;
  466 : 0440006F;
  467 : 710037B7;
  468 : EE078593;
  469 : FFF50537;
  46A : CA0FF0EF;
  46B : 0300006F;
  46C : 710037B7;
  46D : F0078593;
  46E : FFF50537;
  46F : C8CFF0EF;
  470 : 01C0006F;
  471 : FDC42603;
  472 : 710037B7;
  473 : F2478593;
  474 : FFF50537;
  475 : C74FF0EF;
  476 : 00000013;
  477 : 710037B7;
  478 : F3478593;
  479 : FFF50537;
  47A : C60FF0EF;
  47B : FFFE07B7;
  47C : 0087A783;
  47D : 0047F793;
  47E : 04078463;
  47F : FFFE07B7;
  480 : 0047A783;
  481 : 0FF7F793;
  482 : F6F42823;
  483 : F7042783;
  484 : 00078A63;
  485 : F7042783;
  486 : 00100713;
  487 : 00F717B3;
  488 : 0080006F;
  489 : 00000793;
  48A : 00078613;
  48B : 710037B7;
  48C : F4C78593;
  48D : FFF50537;
  48E : C10FF0EF;
  48F : 0140006F;
  490 : 710037B7;
  491 : F5878593;
  492 : FFF50537;
  493 : BFCFF0EF;
  494 : 710037B7;
  495 : F6078593;
  496 : FFF50537;
  497 : BECFF0EF;
  498 : FFFE07B7;
  499 : 0087A783;
  49A : 0087F793;
  49B : 04078663;
  49C : FFFE07B7;
  49D : 0047A783;
  49E : 0087D793;
  49F : 0FF7F793;
  4A0 : F6F42623;
  4A1 : F6C42783;
  4A2 : 00078A63;
  4A3 : F6C42783;
  4A4 : 00100713;
  4A5 : 00F717B3;
  4A6 : 0080006F;
  4A7 : 00000793;
  4A8 : 00078613;
  4A9 : 710037B7;
  4AA : F4C78593;
  4AB : FFF50537;
  4AC : B98FF0EF;
  4AD : 0140006F;
  4AE : 710037B7;
  4AF : F5878593;
  4B0 : FFF50537;
  4B1 : B84FF0EF;
  4B2 : 710037B7;
  4B3 : F7878593;
  4B4 : FFF50537;
  4B5 : B74FF0EF;
  4B6 : FFFE07B7;
  4B7 : 0087A783;
  4B8 : 0207F793;
  4B9 : 06078C63;
  4BA : FFFE07B7;
  4BB : 00C7A783;
  4BC : 00F7F793;
  4BD : FCF42C23;
  4BE : FD842783;
  4BF : 00100713;
  4C0 : 00F717B3;
  4C1 : FCF42C23;
  4C2 : FFFE07B7;
  4C3 : 00C7A783;
  4C4 : 0047D793;
  4C5 : 00F7F793;
  4C6 : FCF42A23;
  4C7 : FD442783;
  4C8 : 00100713;
  4C9 : 00F717B3;
  4CA : FCF42A23;
  4CB : FD842583;
  4CC : FD442503;
  4CD : 5F4010EF;
  4CE : 00050793;
  4CF : FD842703;
  4D0 : FD442683;
  4D1 : 00078613;
  4D2 : 710037B7;
  4D3 : F9078593;
  4D4 : FFF50537;
  4D5 : AF4FF0EF;
  4D6 : 0140006F;
  4D7 : 710037B7;
  4D8 : E6C78593;
  4D9 : FFF50537;
  4DA : AE0FF0EF;
  4DB : FFFE07B7;
  4DC : 00C7A703;
  4DD : 000107B7;
  4DE : 00F777B3;
  4DF : 00078C63;
  4E0 : 710037B7;
  4E1 : FA478593;
  4E2 : FFF50537;
  4E3 : ABCFF0EF;
  4E4 : 0140006F;
  4E5 : 710037B7;
  4E6 : FB878593;
  4E7 : FFF50537;
  4E8 : AA8FF0EF;
  4E9 : 710037B7;
  4EA : FBC78593;
  4EB : FFF50537;
  4EC : A98FF0EF;
  4ED : FFFE07B7;
  4EE : 0087A783;
  4EF : 0407F793;
  4F0 : 06078E63;
  4F1 : FFFE07B7;
  4F2 : 00C7A783;
  4F3 : 0087D793;
  4F4 : 00F7F793;
  4F5 : FCF42823;
  4F6 : FD042783;
  4F7 : 00100713;
  4F8 : 00F717B3;
  4F9 : FCF42823;
  4FA : FFFE07B7;
  4FB : 00C7A783;
  4FC : 00C7D793;
  4FD : 00F7F793;
  4FE : FCF42623;
  4FF : FCC42783;
  500 : 00100713;
  501 : 00F717B3;
  502 : FCF42623;
  503 : FD042583;
  504 : FCC42503;
  505 : 514010EF;
  506 : 00050793;
  507 : FD042703;
  508 : FCC42683;
  509 : 00078613;
  50A : 710037B7;
  50B : F9078593;
  50C : FFF50537;
  50D : A14FF0EF;
  50E : 0140006F;
  50F : 710037B7;
  510 : E6C78593;
  511 : FFF50537;
  512 : A00FF0EF;
  513 : FFFE07B7;
  514 : 00C7A703;
  515 : 010007B7;
  516 : 00F777B3;
  517 : 00078C63;
  518 : 710037B7;
  519 : FA478593;
  51A : FFF50537;
  51B : 9DCFF0EF;
  51C : 0140006F;
  51D : 710037B7;
  51E : FB878593;
  51F : FFF50537;
  520 : 9C8FF0EF;
  521 : 710037B7;
  522 : FD478593;
  523 : FFF50537;
  524 : 9B8FF0EF;
  525 : FFFE07B7;
  526 : 0087A783;
  527 : FEF42423;
  528 : FE842783;
  529 : 0027F793;
  52A : 00078C63;
  52B : 710037B7;
  52C : C1078593;
  52D : FFF50537;
  52E : 990FF0EF;
  52F : 0140006F;
  530 : 710037B7;
  531 : E6C78593;
  532 : FFF50537;
  533 : 97CFF0EF;
  534 : FFFE07B7;
  535 : 00C7A703;
  536 : 010107B7;
  537 : 00F777B3;
  538 : 00078C63;
  539 : 710037B7;
  53A : FA478593;
  53B : FFF50537;
  53C : 958FF0EF;
  53D : 0140006F;
  53E : 710037B7;
  53F : FB878593;
  540 : FFF50537;
  541 : 944FF0EF;
  542 : FFFE07B7;
  543 : 0047A783;
  544 : 01B7D793;
  545 : 01F7F793;
  546 : F6F42223;
  547 : F6442783;
  548 : 00078A63;
  549 : F6442783;
  54A : 00100713;
  54B : 00F717B3;
  54C : 0080006F;
  54D : 00000793;
  54E : 00078613;
  54F : 710037B7;
  550 : FEC78593;
  551 : FFF50537;
  552 : 900FF0EF;
  553 : FFFE07B7;
  554 : 0047A783;
  555 : 01B7D793;
  556 : 01F7F793;
  557 : F6F42423;
  558 : F6842783;
  559 : 00078A63;
  55A : F6842783;
  55B : 00100713;
  55C : 00F717B3;
  55D : 0080006F;
  55E : 00000793;
  55F : 00078613;
  560 : 710037B7;
  561 : 00C78593;
  562 : FFF50537;
  563 : 8BCFF0EF;
  564 : 710037B7;
  565 : 02C78593;
  566 : FFF50537;
  567 : 8ACFF0EF;
  568 : FFFE07B7;
  569 : 0087A783;
  56A : FEF42423;
  56B : FE842703;
  56C : 004007B7;
  56D : 00F777B3;
  56E : 00078A63;
  56F : 710037B7;
  570 : 04478593;
  571 : FFF50537;
  572 : 880FF0EF;
  573 : FE842703;
  574 : 000107B7;
  575 : 00F777B3;
  576 : 00078A63;
  577 : 710037B7;
  578 : 04C78593;
  579 : FFF50537;
  57A : 860FF0EF;
  57B : FE842703;
  57C : 000047B7;
  57D : 00F777B3;
  57E : 00078A63;
  57F : 710037B7;
  580 : 05478593;
  581 : FFF50537;
  582 : 840FF0EF;
  583 : FE842703;
  584 : 000087B7;
  585 : 00F777B3;
  586 : 00078A63;
  587 : 710037B7;
  588 : 05C78593;
  589 : FFF50537;
  58A : 820FF0EF;
  58B : FE842703;
  58C : 100007B7;
  58D : 00F777B3;
  58E : 00078A63;
  58F : 710037B7;
  590 : 06478593;
  591 : FFF50537;
  592 : 800FF0EF;
  593 : FE842703;
  594 : 040007B7;
  595 : 00F777B3;
  596 : 00078A63;
  597 : 710037B7;
  598 : 06C78593;
  599 : FFF50537;
  59A : FE1FE0EF;
  59B : FE842703;
  59C : 400007B7;
  59D : 00F777B3;
  59E : 00078A63;
  59F : 710037B7;
  5A0 : 07478593;
  5A1 : FFF50537;
  5A2 : FC1FE0EF;
  5A3 : FE842703;
  5A4 : 001007B7;
  5A5 : 00F777B3;
  5A6 : 00078A63;
  5A7 : 710037B7;
  5A8 : 08078593;
  5A9 : FFF50537;
  5AA : FA1FE0EF;
  5AB : FE842703;
  5AC : 010007B7;
  5AD : 00F777B3;
  5AE : 00078A63;
  5AF : 710037B7;
  5B0 : 08878593;
  5B1 : FFF50537;
  5B2 : F81FE0EF;
  5B3 : FE842703;
  5B4 : 200007B7;
  5B5 : 00F777B3;
  5B6 : 00078A63;
  5B7 : 710037B7;
  5B8 : 09078593;
  5B9 : FFF50537;
  5BA : F61FE0EF;
  5BB : FE842703;
  5BC : 000407B7;
  5BD : 00F777B3;
  5BE : 00078A63;
  5BF : 710037B7;
  5C0 : 09878593;
  5C1 : FFF50537;
  5C2 : F41FE0EF;
  5C3 : 710037B7;
  5C4 : 0A078593;
  5C5 : FFF50537;
  5C6 : F31FE0EF;
  5C7 : FE842703;
  5C8 : 080007B7;
  5C9 : 00F777B3;
  5CA : 00078A63;
  5CB : 710037B7;
  5CC : 0AC78593;
  5CD : FFF50537;
  5CE : F11FE0EF;
  5CF : FE842703;
  5D0 : 008007B7;
  5D1 : 00F777B3;
  5D2 : 00078A63;
  5D3 : 710037B7;
  5D4 : 0B478593;
  5D5 : FFF50537;
  5D6 : EF1FE0EF;
  5D7 : FE842703;
  5D8 : 000027B7;
  5D9 : 00F777B3;
  5DA : 00078A63;
  5DB : 710037B7;
  5DC : 0BC78593;
  5DD : FFF50537;
  5DE : ED1FE0EF;
  5DF : FE842703;
  5E0 : 000807B7;
  5E1 : 00F777B3;
  5E2 : 00078A63;
  5E3 : 710037B7;
  5E4 : 0C478593;
  5E5 : FFF50537;
  5E6 : EB1FE0EF;
  5E7 : FE842703;
  5E8 : 000207B7;
  5E9 : 00F777B3;
  5EA : 00078A63;
  5EB : 710037B7;
  5EC : 0CC78593;
  5ED : FFF50537;
  5EE : E91FE0EF;
  5EF : FE842703;
  5F0 : 020007B7;
  5F1 : 00F777B3;
  5F2 : 00078A63;
  5F3 : 710037B7;
  5F4 : 0D478593;
  5F5 : FFF50537;
  5F6 : E71FE0EF;
  5F7 : FE842703;
  5F8 : 002007B7;
  5F9 : 00F777B3;
  5FA : 00078A63;
  5FB : 710037B7;
  5FC : 0DC78593;
  5FD : FFF50537;
  5FE : E51FE0EF;
  5FF : 710037B7;
  600 : 0E478593;
  601 : FFF50537;
  602 : E41FE0EF;
  603 : 0080006F;
  604 : 00000013;
  605 : 09C12083;
  606 : 09812403;
  607 : 0A010113;
  608 : 00008067;
  609 : FD010113;
  60A : 02112623;
  60B : 02812423;
  60C : 03010413;
  60D : FCA42E23;
  60E : FE042623;
  60F : FE0405A3;
  610 : FE040523;
  611 : FFF50537;
  612 : 88DFE0EF;
  613 : 00050793;
  614 : 0A078E63;
  615 : FE042623;
  616 : 0A80006F;
  617 : 00300713;
  618 : FEC42783;
  619 : 40F707B3;
  61A : 00379793;
  61B : FDC42703;
  61C : 00F757B3;
  61D : FEF405A3;
  61E : FE040523;
  61F : 01C0006F;
  620 : FEB44783;
  621 : FF078793;
  622 : FEF405A3;
  623 : FEA44783;
  624 : 00178793;
  625 : FEF40523;
  626 : FEB44703;
  627 : 00F00793;
  628 : FEE7E0E3;
  629 : FEA44783;
  62A : 00078E63;
  62B : FEA44783;
  62C : 03078793;
  62D : 0FF7F793;
  62E : 00078593;
  62F : FFF50537;
  630 : 9A9FE0EF;
  631 : FEB44783;
  632 : 03078793;
  633 : 0FF7F793;
  634 : 00078593;
  635 : FFF50537;
  636 : 991FE0EF;
  637 : FEC42703;
  638 : 00200793;
  639 : 00E7E863;
  63A : 02E00593;
  63B : FFF50537;
  63C : 979FE0EF;
  63D : FEC42783;
  63E : 00178793;
  63F : FEF42623;
  640 : FEC42703;
  641 : 00300793;
  642 : F4E7FAE3;
  643 : 00000013;
  644 : 02C12083;
  645 : 02812403;
  646 : 03010113;
  647 : 00008067;
  648 : F6010113;
  649 : 08112E23;
  64A : 08812C23;
  64B : 0A010413;
  64C : 710037B7;
  64D : 1B078713;
  64E : F6040793;
  64F : 00070693;
  650 : 07E00713;
  651 : 00070613;
  652 : 00068593;
  653 : 00078513;
  654 : 13C010EF;
  655 : FE042623;
  656 : FE042423;
  657 : FE042223;
  658 : FE041123;
  659 : FE0400A3;
  65A : FFF50537;
  65B : F68FE0EF;
  65C : 00050793;
  65D : 0E078263;
  65E : FE042423;
  65F : 0C00006F;
  660 : 710037B7;
  661 : FB878593;
  662 : FFF50537;
  663 : 969FE0EF;
  664 : FE042623;
  665 : 0900006F;
  666 : FE842703;
  667 : 00070793;
  668 : 00379793;
  669 : 40E787B3;
  66A : FEC42703;
  66B : 00E787B3;
  66C : 00179793;
  66D : FF078793;
  66E : 008787B3;
  66F : F707D783;
  670 : FEF41123;
  671 : FE042223;
  672 : 0440006F;
  673 : 02000793;
  674 : FEF400A3;
  675 : FE241783;
  676 : 0007D663;
  677 : 02300793;
  678 : FEF400A3;
  679 : FE144783;
  67A : 00078593;
  67B : FFF50537;
  67C : 879FE0EF;
  67D : FE245783;
  67E : 00179793;
  67F : FEF41123;
  680 : FE442783;
  681 : 00178793;
  682 : FEF42223;
  683 : FE442703;
  684 : 00F00793;
  685 : FAE7FCE3;
  686 : FEC42783;
  687 : 00178793;
  688 : FEF42623;
  689 : FEC42703;
  68A : 00600793;
  68B : F6E7F6E3;
  68C : FE842783;
  68D : 00178793;
  68E : FEF42423;
  68F : FE842703;
  690 : 00800793;
  691 : F2E7FEE3;
  692 : 710037B7;
  693 : FB878593;
  694 : FFF50537;
  695 : 8A1FE0EF;
  696 : 00000013;
  697 : 09C12083;
  698 : 09812403;
  699 : 0A010113;
  69A : 00008067;
  69B : FB010113;
  69C : 04812623;
  69D : 05010413;
  69E : FC0027F3;
  69F : FEF42223;
  6A0 : FE442783;
  6A1 : 1007F793;
  6A2 : 00079663;
  6A3 : 00000793;
  6A4 : 15C0006F;
  6A5 : 010107B7;
  6A6 : 10178793;
  6A7 : FEF42623;
  6A8 : FEC42783;
  6A9 : FAF42C23;
  6AA : FB842783;
  6AB : FAF42A23;
  6AC : FB442783;
  6AD : 3A079073;
  6AE : 00000013;
  6AF : FEC42783;
  6B0 : FCF42023;
  6B1 : FC042783;
  6B2 : FAF42E23;
  6B3 : FBC42783;
  6B4 : 3A179073;
  6B5 : 00000013;
  6B6 : FEC42783;
  6B7 : FCF42423;
  6B8 : FC842783;
  6B9 : FCF42223;
  6BA : FC442783;
  6BB : 3A279073;
  6BC : 00000013;
  6BD : FEC42783;
  6BE : FCF42823;
  6BF : FD042783;
  6C0 : FCF42623;
  6C1 : FCC42783;
  6C2 : 3A379073;
  6C3 : 00000013;
  6C4 : FA042823;
  6C5 : 3A0027F3;
  6C6 : FCF42A23;
  6C7 : FD442703;
  6C8 : FEC42783;
  6C9 : 00F77733;
  6CA : FB042783;
  6CB : 00F707B3;
  6CC : FAF42823;
  6CD : 3A1027F3;
  6CE : FCF42C23;
  6CF : FD842703;
  6D0 : FEC42783;
  6D1 : 00F77733;
  6D2 : FB042783;
  6D3 : 00F707B3;
  6D4 : FAF42823;
  6D5 : 3A2027F3;
  6D6 : FCF42E23;
  6D7 : FDC42703;
  6D8 : FEC42783;
  6D9 : 00F77733;
  6DA : FB042783;
  6DB : 00F707B3;
  6DC : FAF42823;
  6DD : 3A3027F3;
  6DE : FEF42023;
  6DF : FE042703;
  6E0 : FEC42783;
  6E1 : 00F77733;
  6E2 : FB042783;
  6E3 : 00F707B3;
  6E4 : FAF42823;
  6E5 : FE042423;
  6E6 : FB044783;
  6E7 : 00078713;
  6E8 : FE842783;
  6E9 : 00E787B3;
  6EA : FEF42423;
  6EB : FB144783;
  6EC : 00078713;
  6ED : FE842783;
  6EE : 00E787B3;
  6EF : FEF42423;
  6F0 : FB244783;
  6F1 : 00078713;
  6F2 : FE842783;
  6F3 : 00E787B3;
  6F4 : FEF42423;
  6F5 : FB344783;
  6F6 : 00078713;
  6F7 : FE842783;
  6F8 : 00E787B3;
  6F9 : FEF42423;
  6FA : FE842783;
  6FB : 00078513;
  6FC : 04C12403;
  6FD : 05010113;
  6FE : 00008067;
  6FF : FD010113;
  700 : 02812623;
  701 : 03010413;
  702 : FC0027F3;
  703 : FEF42223;
  704 : FE442783;
  705 : 1007F793;
  706 : 00079663;
  707 : 00000793;
  708 : 0980006F;
  709 : FC042A23;
  70A : FD442783;
  70B : FCF42823;
  70C : FD042783;
  70D : 3A079073;
  70E : 00000013;
  70F : FFF00793;
  710 : FCF42E23;
  711 : FDC42783;
  712 : FCF42C23;
  713 : FD842783;
  714 : 3B079073;
  715 : 00000013;
  716 : 3B0027F3;
  717 : FEF42023;
  718 : FE042783;
  719 : FEF42623;
  71A : FEC42783;
  71B : 00079663;
  71C : 00000793;
  71D : 0440006F;
  71E : 00200793;
  71F : FEF42423;
  720 : FEC42783;
  721 : 0017F793;
  722 : 02079063;
  723 : FEC42783;
  724 : 0017D793;
  725 : FEF42623;
  726 : FE842783;
  727 : 00178793;
  728 : FEF42423;
  729 : FDDFF06F;
  72A : 00000013;
  72B : FE842783;
  72C : 00100713;
  72D : 00F717B3;
  72E : 00078513;
  72F : 02C12403;
  730 : 03010113;
  731 : 00008067;
  732 : F4010113;
  733 : 0A812E23;
  734 : 0C010413;
  735 : FC0027F3;
  736 : FEF42423;
  737 : FE842783;
  738 : 2007F793;
  739 : 00079663;
  73A : 00000793;
  73B : 2CC0006F;
  73C : FF800793;
  73D : F4F42423;
  73E : F4842783;
  73F : F4F42223;
  740 : F4442783;
  741 : 3207A073;
  742 : 00000013;
  743 : 00100793;
  744 : F4F42823;
  745 : F5042783;
  746 : F4F42623;
  747 : F4C42783;
  748 : B0379073;
  749 : 00000013;
  74A : 00100793;
  74B : F4F42C23;
  74C : F5842783;
  74D : F4F42A23;
  74E : F5442783;
  74F : B0479073;
  750 : 00000013;
  751 : 00100793;
  752 : F6F42023;
  753 : F6042783;
  754 : F4F42E23;
  755 : F5C42783;
  756 : B0579073;
  757 : 00000013;
  758 : 00100793;
  759 : F6F42423;
  75A : F6842783;
  75B : F6F42223;
  75C : F6442783;
  75D : B0679073;
  75E : 00000013;
  75F : 00100793;
  760 : F6F42823;
  761 : F7042783;
  762 : F6F42623;
  763 : F6C42783;
  764 : B0779073;
  765 : 00000013;
  766 : 00100793;
  767 : F6F42C23;
  768 : F7842783;
  769 : F6F42A23;
  76A : F7442783;
  76B : B0879073;
  76C : 00000013;
  76D : 00100793;
  76E : F8F42023;
  76F : F8042783;
  770 : F6F42E23;
  771 : F7C42783;
  772 : B0979073;
  773 : 00000013;
  774 : 00100793;
  775 : F8F42423;
  776 : F8842783;
  777 : F8F42223;
  778 : F8442783;
  779 : B0A79073;
  77A : 00000013;
  77B : 00100793;
  77C : F8F42823;
  77D : F9042783;
  77E : F8F42623;
  77F : F8C42783;
  780 : B0B79073;
  781 : 00000013;
  782 : 00100793;
  783 : F8F42C23;
  784 : F9842783;
  785 : F8F42A23;
  786 : F9442783;
  787 : B0C79073;
  788 : 00000013;
  789 : 00100793;
  78A : FAF42023;
  78B : FA042783;
  78C : F8F42E23;
  78D : F9C42783;
  78E : B0D79073;
  78F : 00000013;
  790 : 00100793;
  791 : FAF42423;
  792 : FA842783;
  793 : FAF42223;
  794 : FA442783;
  795 : B0E79073;
  796 : 00000013;
  797 : 00100793;
  798 : FAF42823;
  799 : FB042783;
  79A : FAF42623;
  79B : FAC42783;
  79C : B0F79073;
  79D : 00000013;
  79E : FE042623;
  79F : B03027F3;
  7A0 : FAF42A23;
  7A1 : FB442783;
  7A2 : FEC42703;
  7A3 : 00F707B3;
  7A4 : FEF42623;
  7A5 : B04027F3;
  7A6 : FAF42C23;
  7A7 : FB842783;
  7A8 : FEC42703;
  7A9 : 00F707B3;
  7AA : FEF42623;
  7AB : B05027F3;
  7AC : FAF42E23;
  7AD : FBC42783;
  7AE : FEC42703;
  7AF : 00F707B3;
  7B0 : FEF42623;
  7B1 : B06027F3;
  7B2 : FCF42023;
  7B3 : FC042783;
  7B4 : FEC42703;
  7B5 : 00F707B3;
  7B6 : FEF42623;
  7B7 : B07027F3;
  7B8 : FCF42223;
  7B9 : FC442783;
  7BA : FEC42703;
  7BB : 00F707B3;
  7BC : FEF42623;
  7BD : B08027F3;
  7BE : FCF42423;
  7BF : FC842783;
  7C0 : FEC42703;
  7C1 : 00F707B3;
  7C2 : FEF42623;
  7C3 : B09027F3;
  7C4 : FCF42623;
  7C5 : FCC42783;
  7C6 : FEC42703;
  7C7 : 00F707B3;
  7C8 : FEF42623;
  7C9 : B0A027F3;
  7CA : FCF42823;
  7CB : FD042783;
  7CC : FEC42703;
  7CD : 00F707B3;
  7CE : FEF42623;
  7CF : B0B027F3;
  7D0 : FCF42A23;
  7D1 : FD442783;
  7D2 : FEC42703;
  7D3 : 00F707B3;
  7D4 : FEF42623;
  7D5 : B0C027F3;
  7D6 : FCF42C23;
  7D7 : FD842783;
  7D8 : FEC42703;
  7D9 : 00F707B3;
  7DA : FEF42623;
  7DB : B0D027F3;
  7DC : FCF42E23;
  7DD : FDC42783;
  7DE : FEC42703;
  7DF : 00F707B3;
  7E0 : FEF42623;
  7E1 : B0E027F3;
  7E2 : FEF42023;
  7E3 : FE042783;
  7E4 : FEC42703;
  7E5 : 00F707B3;
  7E6 : FEF42623;
  7E7 : B0F027F3;
  7E8 : FEF42223;
  7E9 : FE442783;
  7EA : FEC42703;
  7EB : 00F707B3;
  7EC : FEF42623;
  7ED : FEC42783;
  7EE : 00078513;
  7EF : 0BC12403;
  7F0 : 0C010113;
  7F1 : 00008067;
  7F2 : FC010113;
  7F3 : 02812E23;
  7F4 : 04010413;
  7F5 : FE042623;
  7F6 : FE042423;
  7F7 : FC0027F3;
  7F8 : FEF42223;
  7F9 : FE442783;
  7FA : 2007F793;
  7FB : 00079663;
  7FC : 00000793;
  7FD : 0C80006F;
  7FE : 00800793;
  7FF : FCF42623;
  800 : FCC42783;
  801 : FCF42423;
  802 : FC842783;
  803 : 3207A073;
  804 : 00000013;
  805 : FFF00793;
  806 : FCF42A23;
  807 : FD442783;
  808 : FCF42823;
  809 : FD042783;
  80A : B0379073;
  80B : 00000013;
  80C : FFF00793;
  80D : FCF42E23;
  80E : FDC42783;
  80F : FCF42C23;
  810 : FD842783;
  811 : B8379073;
  812 : 00000013;
  813 : FE042423;
  814 : B03027F3;
  815 : FEF42023;
  816 : FE042783;
  817 : FEF42623;
  818 : 01C0006F;
  819 : FE842783;
  81A : 00178793;
  81B : FEF42423;
  81C : FEC42783;
  81D : 0017D793;
  81E : FEF42623;
  81F : FEC42783;
  820 : FE0792E3;
  821 : B83027F3;
  822 : FCF42223;
  823 : FC442783;
  824 : FEF42623;
  825 : 01C0006F;
  826 : FE842783;
  827 : 00178793;
  828 : FEF42423;
  829 : FEC42783;
  82A : 0017D793;
  82B : FEF42623;
  82C : FEC42783;
  82D : FE0792E3;
  82E : FE842783;
  82F : 00078513;
  830 : 03C12403;
  831 : 04010113;
  832 : 00008067;
  833 : FD010113;
  834 : 02812623;
  835 : 03010413;
  836 : FE042623;
  837 : FE042423;
  838 : FC0027F3;
  839 : FEF42223;
  83A : FE442703;
  83B : 000017B7;
  83C : 80078793;
  83D : 00F777B3;
  83E : 00079663;
  83F : 00000793;
  840 : 0740006F;
  841 : FE842783;
  842 : FCF42E23;
  843 : FDC42783;
  844 : FCF42C23;
  845 : FD842783;
  846 : 7A079073;
  847 : 00000013;
  848 : 7A0027F3;
  849 : FEF42023;
  84A : FE042783;
  84B : FE842703;
  84C : 04F71063;
  84D : 7A4027F3;
  84E : FCF42A23;
  84F : FD442703;
  850 : 000107B7;
  851 : FFF78793;
  852 : 00F77733;
  853 : 00100793;
  854 : 02F70063;
  855 : FEC42783;
  856 : 00178793;
  857 : FEF42623;
  858 : FE842783;
  859 : 00178793;
  85A : FEF42423;
  85B : F99FF06F;
  85C : FEC42783;
  85D : 00078513;
  85E : 02C12403;
  85F : 03010113;
  860 : 00008067;
  861 : FE010113;
  862 : 00112E23;
  863 : 00812C23;
  864 : 02010413;
  865 : FEA42623;
  866 : FFF50537;
  867 : F39FD0EF;
  868 : 00050793;
  869 : 00078863;
  86A : FEC42583;
  86B : FFF50537;
  86C : 944FE0EF;
  86D : 00000013;
  86E : 01C12083;
  86F : 01812403;
  870 : 02010113;
  871 : 00008067;
  872 : FC010113;
  873 : 02112E23;
  874 : 02812C23;
  875 : 04010413;
  876 : FCA42623;
  877 : FE042623;
  878 : 710047B7;
  879 : 87C78793;
  87A : 0007A583;
  87B : 0047A603;
  87C : 0087A683;
  87D : 00C7A703;
  87E : FCB42C23;
  87F : FCC42E23;
  880 : FED42023;
  881 : FEE42223;
  882 : 0107C783;
  883 : FEF40423;
  884 : FFF50537;
  885 : EC1FD0EF;
  886 : 00050793;
  887 : 06078863;
  888 : 03000593;
  889 : FFF50537;
  88A : 840FE0EF;
  88B : 07800593;
  88C : FFF50537;
  88D : 834FE0EF;
  88E : FE042623;
  88F : 0440006F;
  890 : 00700713;
  891 : FEC42783;
  892 : 40F707B3;
  893 : 00279793;
  894 : FCC42703;
  895 : 00F757B3;
  896 : 00F7F793;
  897 : FF078793;
  898 : 008787B3;
  899 : FE87C783;
  89A : 00078593;
  89B : FFF50537;
  89C : FF9FD0EF;
  89D : FEC42783;
  89E : 00178793;
  89F : FEF42623;
  8A0 : FEC42703;
  8A1 : 00700793;
  8A2 : FAE7DCE3;
  8A3 : 00000013;
  8A4 : 03C12083;
  8A5 : 03812403;
  8A6 : 04010113;
  8A7 : 00008067;
  8A8 : FC010113;
  8A9 : 02112E23;
  8AA : 02812C23;
  8AB : 04010413;
  8AC : 710047B7;
  8AD : 89078513;
  8AE : ECDFF0EF;
  8AF : F14027F3;
  8B0 : FEF42223;
  8B1 : FE442783;
  8B2 : 0017F793;
  8B3 : 00078A63;
  8B4 : 710047B7;
  8B5 : 8AC78513;
  8B6 : EADFF0EF;
  8B7 : 0100006F;
  8B8 : 710047B7;
  8B9 : 8B478513;
  8BA : E9DFF0EF;
  8BB : 300027F3;
  8BC : FEF42023;
  8BD : FE042703;
  8BE : 000027B7;
  8BF : 80078793;
  8C0 : 00F777B3;
  8C1 : 00078A63;
  8C2 : 710047B7;
  8C3 : 8BC78513;
  8C4 : E75FF0EF;
  8C5 : 0100006F;
  8C6 : 710047B7;
  8C7 : 8C078513;
  8C8 : E65FF0EF;
  8C9 : 342027F3;
  8CA : FCF42E23;
  8CB : FDC42783;
  8CC : FEF42423;
  8CD : FE042623;
  8CE : FE842703;
  8CF : 00B00793;
  8D0 : 06E7E063;
  8D1 : 0340006F;
  8D2 : FE842703;
  8D3 : 800007B7;
  8D4 : FFD78793;
  8D5 : 00F707B3;
  8D6 : 01C00713;
  8D7 : 24F76463;
  8D8 : 00279713;
  8D9 : 710047B7;
  8DA : BA878793;
  8DB : 00F707B3;
  8DC : 0007A783;
  8DD : 00078067;
  8DE : FE842703;
  8DF : 00B00793;
  8E0 : 22E7E263;
  8E1 : FE842783;
  8E2 : 00279713;
  8E3 : 710047B7;
  8E4 : C1C78793;
  8E5 : 00F707B3;
  8E6 : 0007A783;
  8E7 : 00078067;
  8E8 : FE842703;
  8E9 : 800007B7;
  8EA : 01F78793;
  8EB : 1EE7EC63;
  8EC : FE842703;
  8ED : 800007B7;
  8EE : 00378793;
  8EF : F8F776E3;
  8F0 : 1E40006F;
  8F1 : 710047B7;
  8F2 : 8C478513;
  8F3 : DB9FF0EF;
  8F4 : 00100793;
  8F5 : FEF42623;
  8F6 : 1EC0006F;
  8F7 : 710047B7;
  8F8 : 8E078513;
  8F9 : DA1FF0EF;
  8FA : 1DC0006F;
  8FB : 710047B7;
  8FC : 8F478513;
  8FD : D91FF0EF;
  8FE : 00100793;
  8FF : FEF42623;
  900 : 1C40006F;
  901 : 710047B7;
  902 : 91478513;
  903 : D79FF0EF;
  904 : 1B40006F;
  905 : 710047B7;
  906 : 92C78513;
  907 : D69FF0EF;
  908 : 1A40006F;
  909 : 710047B7;
  90A : 94478513;
  90B : D59FF0EF;
  90C : 1940006F;
  90D : 710047B7;
  90E : 95878513;
  90F : D49FF0EF;
  910 : 1840006F;
  911 : 710047B7;
  912 : 97478513;
  913 : D39FF0EF;
  914 : 1740006F;
  915 : 710047B7;
  916 : 98878513;
  917 : D29FF0EF;
  918 : 1640006F;
  919 : 710047B7;
  91A : 9A878513;
  91B : D19FF0EF;
  91C : 1540006F;
  91D : 710047B7;
  91E : 9C878513;
  91F : D09FF0EF;
  920 : 1440006F;
  921 : 710047B7;
  922 : 9E078513;
  923 : CF9FF0EF;
  924 : 1340006F;
  925 : 710047B7;
  926 : 9F478513;
  927 : CE9FF0EF;
  928 : 1240006F;
  929 : 710047B7;
  92A : A0C78513;
  92B : CD9FF0EF;
  92C : 1140006F;
  92D : 710047B7;
  92E : A1C78513;
  92F : CC9FF0EF;
  930 : 1040006F;
  931 : 710047B7;
  932 : A2C78513;
  933 : CB9FF0EF;
  934 : 0F40006F;
  935 : 710047B7;
  936 : A3C78513;
  937 : CA9FF0EF;
  938 : 0E40006F;
  939 : 710047B7;
  93A : A4C78513;
  93B : C99FF0EF;
  93C : 0D40006F;
  93D : 710047B7;
  93E : A6078513;
  93F : C89FF0EF;
  940 : 0C40006F;
  941 : 710047B7;
  942 : A7078513;
  943 : C79FF0EF;
  944 : 0B40006F;
  945 : 710047B7;
  946 : A8078513;
  947 : C69FF0EF;
  948 : 0A40006F;
  949 : 710047B7;
  94A : A9078513;
  94B : C59FF0EF;
  94C : 0940006F;
  94D : 710047B7;
  94E : AA078513;
  94F : C49FF0EF;
  950 : 0840006F;
  951 : 710047B7;
  952 : AB078513;
  953 : C39FF0EF;
  954 : 0740006F;
  955 : 710047B7;
  956 : AC078513;
  957 : C29FF0EF;
  958 : 0640006F;
  959 : 710047B7;
  95A : AD078513;
  95B : C19FF0EF;
  95C : 0540006F;
  95D : 710047B7;
  95E : AE078513;
  95F : C09FF0EF;
  960 : 0440006F;
  961 : 710047B7;
  962 : AF478513;
  963 : BF9FF0EF;
  964 : 0340006F;
  965 : 710047B7;
  966 : B0478513;
  967 : BE9FF0EF;
  968 : 0240006F;
  969 : 710047B7;
  96A : B1478513;
  96B : BD9FF0EF;
  96C : FE842503;
  96D : C15FF0EF;
  96E : 00100793;
  96F : FEF42623;
  970 : 00000013;
  971 : 710047B7;
  972 : B2878513;
  973 : BB9FF0EF;
  974 : 341027F3;
  975 : FCF42823;
  976 : FD042783;
  977 : 00078513;
  978 : BE9FF0EF;
  979 : 710047B7;
  97A : B3078513;
  97B : B99FF0EF;
  97C : 34A027F3;
  97D : FCF42A23;
  97E : FD442783;
  97F : 00078513;
  980 : BC9FF0EF;
  981 : 710047B7;
  982 : B3C78513;
  983 : B79FF0EF;
  984 : 343027F3;
  985 : FCF42C23;
  986 : FD842783;
  987 : 00078513;
  988 : BA9FF0EF;
  989 : FE842783;
  98A : 0207DC63;
  98B : 710047B7;
  98C : B4478513;
  98D : B51FF0EF;
  98E : FE842783;
  98F : 01F7F793;
  990 : 00100713;
  991 : 00F717B3;
  992 : FCF42623;
  993 : FCC42783;
  994 : FCF42423;
  995 : FC842783;
  996 : 3047B073;
  997 : 00000013;
  998 : FEC42783;
  999 : 00078C63;
  99A : 710047B7;
  99B : B5C78513;
  99C : B15FF0EF;
  99D : 10500073;
  99E : FFDFF06F;
  99F : 710047B7;
  9A0 : B8C78513;
  9A1 : B01FF0EF;
  9A2 : 00000013;
  9A3 : 03C12083;
  9A4 : 03812403;
  9A5 : 04010113;
  9A6 : 00008067;
  9A7 : 0FF0000F;
  9A8 : 34011073;
  9A9 : F8010113;
  9AA : 00112223;
  9AB : 340110F3;
  9AC : 00112423;
  9AD : 00312623;
  9AE : 00412823;
  9AF : 00512A23;
  9B0 : 00612C23;
  9B1 : 00712E23;
  9B2 : 02812023;
  9B3 : 02912223;
  9B4 : 02A12423;
  9B5 : 02B12623;
  9B6 : 02C12823;
  9B7 : 02D12A23;
  9B8 : 02E12C23;
  9B9 : 02F12E23;
  9BA : 05012023;
  9BB : 05112223;
  9BC : 05212423;
  9BD : 05312623;
  9BE : 05412823;
  9BF : 05512A23;
  9C0 : 05612C23;
  9C1 : 05712E23;
  9C2 : 07812023;
  9C3 : 07912223;
  9C4 : 07A12423;
  9C5 : 07B12623;
  9C6 : 07C12823;
  9C7 : 07D12A23;
  9C8 : 07E12C23;
  9C9 : 07F12E23;
  9CA : 34202573;
  9CB : 01855593;
  9CC : 01F57613;
  9CD : 00261613;
  9CE : 00B60633;
  9CF : 0EFFE517;
  9D0 : 8C450513;
  9D1 : 00A60633;
  9D2 : 00062603;
  9D3 : 000600E7;
  9D4 : 34202573;
  9D5 : 00054863;
  9D6 : 34102573;
  9D7 : 00450513;
  9D8 : 34151073;
  9D9 : 00412083;
  9DA : 00C12183;
  9DB : 01012203;
  9DC : 01412283;
  9DD : 01812303;
  9DE : 01C12383;
  9DF : 02012403;
  9E0 : 02412483;
  9E1 : 02812503;
  9E2 : 02C12583;
  9E3 : 03012603;
  9E4 : 03412683;
  9E5 : 03812703;
  9E6 : 03C12783;
  9E7 : 04012803;
  9E8 : 04412883;
  9E9 : 04812903;
  9EA : 04C12983;
  9EB : 05012A03;
  9EC : 05412A83;
  9ED : 05812B03;
  9EE : 05C12B83;
  9EF : 06012C03;
  9F0 : 06412C83;
  9F1 : 06812D03;
  9F2 : 06C12D83;
  9F3 : 07012E03;
  9F4 : 07412E83;
  9F5 : 07812F03;
  9F6 : 07C12F83;
  9F7 : 00812103;
  9F8 : 30200073;
  9F9 : 00000013;
  9FA : FD010113;
  9FB : 02812623;
  9FC : 03010413;
  9FD : 000027B7;
  9FE : 80078793;
  9FF : FCF42A23;
  A00 : FD442783;
  A01 : FCF42823;
  A02 : FD042783;
  A03 : 30079073;
  A04 : 00000013;
  A05 : 710027B7;
  A06 : 69C78793;
  A07 : FFC7F793;
  A08 : FCF42E23;
  A09 : FDC42783;
  A0A : FCF42C23;
  A0B : FD842783;
  A0C : 30579073;
  A0D : 00000013;
  A0E : FE042223;
  A0F : FE442783;
  A10 : FEF42023;
  A11 : FE042783;
  A12 : 30479073;
  A13 : 00000013;
  A14 : F14027F3;
  A15 : FEF42423;
  A16 : FE842783;
  A17 : 06079463;
  A18 : FE042623;
  A19 : 0540006F;
  A1A : 710027B7;
  A1B : 2A078713;
  A1C : 800007B7;
  A1D : 00078693;
  A1E : FEC42783;
  A1F : 00279793;
  A20 : 00F687B3;
  A21 : 00E7A023;
  A22 : 710027B7;
  A23 : 2A078713;
  A24 : 800007B7;
  A25 : 00078693;
  A26 : FEC42783;
  A27 : 02078793;
  A28 : 00279793;
  A29 : 00F687B3;
  A2A : 00E7A023;
  A2B : FEC42783;
  A2C : 00178793;
  A2D : FEF42623;
  A2E : FEC42703;
  A2F : 01F00793;
  A30 : FAE7D4E3;
  A31 : 0FF0000F;
  A32 : 00000013;
  A33 : 02C12403;
  A34 : 03010113;
  A35 : 00008067;
  A36 : FF010113;
  A37 : 00812623;
  A38 : 01010413;
  A39 : FFFC07B7;
  A3A : 0007A783;
  A3B : 00078513;
  A3C : 00C12403;
  A3D : 01010113;
  A3E : 00008067;
  A3F : FF010113;
  A40 : 00112623;
  A41 : 00812423;
  A42 : 01010413;
  A43 : FCDFF0EF;
  A44 : 00050793;
  A45 : 00078513;
  A46 : 00C12083;
  A47 : 00812403;
  A48 : 01010113;
  A49 : 00008067;
  A4A : 00050613;
  A4B : 00000513;
  A4C : 0015F693;
  A4D : 00068463;
  A4E : 00C50533;
  A4F : 0015D593;
  A50 : 00161613;
  A51 : FE0596E3;
  A52 : 00008067;
  A53 : 00050E13;
  A54 : FF010113;
  A55 : 00068313;
  A56 : 00112623;
  A57 : 00060513;
  A58 : 000E0893;
  A59 : 00060693;
  A5A : 00000713;
  A5B : 00000793;
  A5C : 00000813;
  A5D : 0016FE93;
  A5E : 00171613;
  A5F : 000E8A63;
  A60 : 01088833;
  A61 : 00E787B3;
  A62 : 01183733;
  A63 : 00F707B3;
  A64 : 01F8D713;
  A65 : 0016D693;
  A66 : 00E66733;
  A67 : 00189893;
  A68 : FC069AE3;
  A69 : 00058663;
  A6A : F81FF0EF;
  A6B : 00A787B3;
  A6C : 00030A63;
  A6D : 000E0513;
  A6E : 00030593;
  A6F : F6DFF0EF;
  A70 : 00F507B3;
  A71 : 00C12083;
  A72 : 00080513;
  A73 : 00078593;
  A74 : 01010113;
  A75 : 00008067;
  A76 : 06054063;
  A77 : 0605C663;
  A78 : 00058613;
  A79 : 00050593;
  A7A : FFF00513;
  A7B : 02060C63;
  A7C : 00100693;
  A7D : 00B67A63;
  A7E : 00C05863;
  A7F : 00161613;
  A80 : 00169693;
  A81 : FEB66AE3;
  A82 : 00000513;
  A83 : 00C5E663;
  A84 : 40C585B3;
  A85 : 00D56533;
  A86 : 0016D693;
  A87 : 00165613;
  A88 : FE0696E3;
  A89 : 00008067;
  A8A : 00008293;
  A8B : FB5FF0EF;
  A8C : 00058513;
  A8D : 00028067;
  A8E : 40A00533;
  A8F : 00B04863;
  A90 : 40B005B3;
  A91 : F9DFF06F;
  A92 : 40B005B3;
  A93 : 00008293;
  A94 : F91FF0EF;
  A95 : 40A00533;
  A96 : 00028067;
  A97 : 00008293;
  A98 : 0005CA63;
  A99 : 00054C63;
  A9A : F79FF0EF;
  A9B : 00058513;
  A9C : 00028067;
  A9D : 40B005B3;
  A9E : FE0558E3;
  A9F : 40A00533;
  AA0 : F61FF0EF;
  AA1 : 40B00533;
  AA2 : 00028067;
  AA3 : 00050313;
  AA4 : 00060E63;
  AA5 : 00058383;
  AA6 : 00730023;
  AA7 : FFF60613;
  AA8 : 00130313;
  AA9 : 00158593;
  AAA : FE0616E3;
  AAB : 00008067;
  AAC : 00050793;
  AAD : 0007C703;
  AAE : 00178793;
  AAF : FE071CE3;
  AB0 : 40A78533;
  AB1 : FFF50513;
  AB2 : 00008067;
  AB3 : 524F454E;
  AB4 : 3A323356;
  AB5 : 6C654820;
  AB6 : 77206F6C;
  AB7 : 646C726F;
  AB8 : 00000A21;
  AB9 : 524F454E;
  ABA : 3A323356;
  ABB : 756F4620;
  ABC : 5320646E;
  ABD : 72204244;
  ABE : 20746F6F;
  ABF : 30207461;
  AC0 : 0A782578;
  AC1 : 00000000;
  AC2 : 71000484;
  AC3 : 710004A8;
  AC4 : 710005C8;
  AC5 : 710005C8;
  AC6 : 710005C8;
  AC7 : 710005C8;
  AC8 : 710004A8;
  AC9 : 710005C8;
  ACA : 710005C8;
  ACB : 710005C8;
  ACC : 710005C8;
  ACD : 710005C8;
  ACE : 710005C8;
  ACF : 71000540;
  AD0 : 710005C8;
  AD1 : 710005C8;
  AD2 : 71000464;
  AD3 : 710005C8;
  AD4 : 71000508;
  AD5 : 710005C8;
  AD6 : 710005C8;
  AD7 : 71000540;
  AD8 : 33323130;
  AD9 : 37363534;
  ADA : 62613938;
  ADB : 66656463;
  ADC : 3C3C0A0A;
  ADD : 4F454E20;
  ADE : 32335652;
  ADF : 6F725020;
  AE0 : 73736563;
  AE1 : 4320726F;
  AE2 : 69666E6F;
  AE3 : 61727567;
  AE4 : 6E6F6974;
  AE5 : 0A3E3E20;
  AE6 : 0000000A;
  AE7 : 73207349;
  AE8 : 6C756D69;
  AE9 : 6F697461;
  AEA : 20203A6E;
  AEB : 20202020;
  AEC : 00000020;
  AED : 0A736579;
  AEE : 00000000;
  AEF : 000A6F6E;
  AF0 : 20555043;
  AF1 : 65726F63;
  AF2 : 68282073;
  AF3 : 73747261;
  AF4 : 20203A29;
  AF5 : 0A752520;
  AF6 : 00000000;
  AF7 : 636F6C43;
  AF8 : 7073206B;
  AF9 : 3A646565;
  AFA : 20202020;
  AFB : 20202020;
  AFC : 20752520;
  AFD : 000A7A48;
  AFE : 632D6E4F;
  AFF : 20706968;
  B00 : 75626564;
  B01 : 72656767;
  B02 : 2020203A;
  B03 : 00000020;
  B04 : 62616E65;
  B05 : 0064656C;
  B06 : 61202B20;
  B07 : 65687475;
  B08 : 6369746E;
  B09 : 6F697461;
  B0A : 0000006E;
  B0B : 7525202C;
  B0C : 20574820;
  B0D : 67697274;
  B0E : 28726567;
  B0F : 000A2973;
  B10 : 61736964;
  B11 : 64656C62;
  B12 : 0000000A;
  B13 : 74726148;
  B14 : 3A444920;
  B15 : 20202020;
  B16 : 20202020;
  B17 : 20202020;
  B18 : 25783020;
  B19 : 65560A78;
  B1A : 726F646E;
  B1B : 3A444920;
  B1C : 20202020;
  B1D : 20202020;
  B1E : 30202020;
  B1F : 0A782578;
  B20 : 68637241;
  B21 : 63657469;
  B22 : 65727574;
  B23 : 3A444920;
  B24 : 20202020;
  B25 : 25783020;
  B26 : 6D490A78;
  B27 : 6D656C70;
  B28 : 61746E65;
  B29 : 6E6F6974;
  B2A : 3A444920;
  B2B : 30202020;
  B2C : 20782578;
  B2D : 00007628;
  B2E : 00000A29;
  B2F : 68637241;
  B30 : 63657469;
  B31 : 65727574;
  B32 : 2020203A;
  B33 : 20202020;
  B34 : 00000020;
  B35 : 32337672;
  B36 : 74696C2D;
  B37 : 00656C74;
  B38 : 6E6B6E75;
  B39 : 006E776F;
  B3A : 4153490A;
  B3B : 74786520;
  B3C : 69736E65;
  B3D : 3A736E6F;
  B3E : 20202020;
  B3F : 00002020;
  B40 : 6D61615A;
  B41 : 0000206F;
  B42 : 726C615A;
  B43 : 00206373;
  B44 : 2061635A;
  B45 : 00000000;
  B46 : 2062635A;
  B47 : 00000000;
  B48 : 2061625A;
  B49 : 00000000;
  B4A : 2062625A;
  B4B : 00000000;
  B4C : 626B625A;
  B4D : 00000020;
  B4E : 636B625A;
  B4F : 00000020;
  B50 : 786B625A;
  B51 : 00000020;
  B52 : 2073625A;
  B53 : 00000000;
  B54 : 6E69665A;
  B55 : 00002078;
  B56 : 6962695A;
  B57 : 00000020;
  B58 : 6E63695A;
  B59 : 00207274;
  B5A : 6F63695A;
  B5B : 0020646E;
  B5C : 7363695A;
  B5D : 00002072;
  B5E : 6566695A;
  B5F : 6965636E;
  B60 : 00000020;
  B61 : 7068695A;
  B62 : 0000206D;
  B63 : 6F6D695A;
  B64 : 00002070;
  B65 : 206E6B5A;
  B66 : 00000000;
  B67 : 646E6B5A;
  B68 : 00000020;
  B69 : 656E6B5A;
  B6A : 00000020;
  B6B : 686E6B5A;
  B6C : 00000020;
  B6D : 20736B5A;
  B6E : 00000000;
  B6F : 65736B5A;
  B70 : 00002064;
  B71 : 68736B5A;
  B72 : 00000020;
  B73 : 20746B5A;
  B74 : 00000000;
  B75 : 756D6D5A;
  B76 : 0000206C;
  B77 : 78656453;
  B78 : 00002074;
  B79 : 72746453;
  B7A : 00206769;
  B7B : 6E636D53;
  B7C : 6D707274;
  B7D : 00002066;
  B7E : 6D706D53;
  B7F : 00002070;
  B80 : 75666358;
  B81 : 00000020;
  B82 : 7968500A;
  B83 : 4D202E73;
  B84 : 726F6D65;
  B85 : 72502079;
  B86 : 3A2E746F;
  B87 : 00002020;
  B88 : 72207525;
  B89 : 6F696765;
  B8A : 2973286E;
  B8B : 7525202C;
  B8C : 74796220;
  B8D : 67207365;
  B8E : 756E6172;
  B8F : 6972616C;
  B90 : 202C7974;
  B91 : 65646F6D;
  B92 : 003D2073;
  B93 : 46464F20;
  B94 : 00000000;
  B95 : 524F5420;
  B96 : 00000000;
  B97 : 34414E20;
  B98 : 00000000;
  B99 : 50414E20;
  B9A : 0000544F;
  B9B : 656E6F6E;
  B9C : 00000000;
  B9D : 4D50480A;
  B9E : 756F6320;
  B9F : 7265746E;
  BA0 : 20203A73;
  BA1 : 20202020;
  BA2 : 00002020;
  BA3 : 63207525;
  BA4 : 746E756F;
  BA5 : 73287265;
  BA6 : 25202C29;
  BA7 : 69622075;
  BA8 : 29732874;
  BA9 : 64697720;
  BAA : 00000065;
  BAB : 6F6F420A;
  BAC : 6F632074;
  BAD : 6769666E;
  BAE : 74617275;
  BAF : 3A6E6F69;
  BB0 : 00002020;
  BB1 : 746F6F62;
  BB2 : 61697620;
  BB3 : 6F6F6220;
  BB4 : 616F6C74;
  BB5 : 20726564;
  BB6 : 0A293028;
  BB7 : 00000000;
  BB8 : 746F6F62;
  BB9 : 6F726620;
  BBA : 7563206D;
  BBB : 6D6F7473;
  BBC : 64646120;
  BBD : 73736572;
  BBE : 29312820;
  BBF : 0000000A;
  BC0 : 746F6F62;
  BC1 : 6F726620;
  BC2 : 7270206D;
  BC3 : 6E692D65;
  BC4 : 61697469;
  BC5 : 657A696C;
  BC6 : 4D492064;
  BC7 : 28204D45;
  BC8 : 000A2932;
  BC9 : 6E6B6E75;
  BCA : 206E776F;
  BCB : 29752528;
  BCC : 0000000A;
  BCD : 65746E49;
  BCE : 6C616E72;
  BCF : 454D4920;
  BD0 : 20203A4D;
  BD1 : 20202020;
  BD2 : 00000020;
  BD3 : 62207525;
  BD4 : 73657479;
  BD5 : 0000000A;
  BD6 : 656E6F6E;
  BD7 : 0000000A;
  BD8 : 65746E49;
  BD9 : 6C616E72;
  BDA : 454D4420;
  BDB : 20203A4D;
  BDC : 20202020;
  BDD : 00000020;
  BDE : 20555043;
  BDF : 61632D49;
  BE0 : 3A656863;
  BE1 : 20202020;
  BE2 : 20202020;
  BE3 : 00000020;
  BE4 : 62207525;
  BE5 : 73657479;
  BE6 : 75252820;
  BE7 : 29752578;
  BE8 : 00000000;
  BE9 : 7562202C;
  BEA : 73747372;
  BEB : 616E6520;
  BEC : 64656C62;
  BED : 0000000A;
  BEE : 0000000A;
  BEF : 20555043;
  BF0 : 61632D44;
  BF1 : 3A656863;
  BF2 : 20202020;
  BF3 : 20202020;
  BF4 : 00000020;
  BF5 : 2E747845;
  BF6 : 73756220;
  BF7 : 746E6920;
  BF8 : 61667265;
  BF9 : 203A6563;
  BFA : 00000020;
  BFB : 20737542;
  BFC : 656D6974;
  BFD : 2074756F;
  BFE : 746E6928;
  BFF : 20203A29;
  C00 : 20752520;
  C01 : 6C637963;
  C02 : 000A7365;
  C03 : 20737542;
  C04 : 656D6974;
  C05 : 2074756F;
  C06 : 74786528;
  C07 : 20203A29;
  C08 : 20752520;
  C09 : 6C637963;
  C0A : 000A7365;
  C0B : 69726550;
  C0C : 72656870;
  C0D : 3A736C61;
  C0E : 20202020;
  C0F : 20202020;
  C10 : 00000020;
  C11 : 20534643;
  C12 : 00000000;
  C13 : 4E494C43;
  C14 : 00002054;
  C15 : 20414D44;
  C16 : 00000000;
  C17 : 4F495047;
  C18 : 00000020;
  C19 : 4D545047;
  C1A : 00002052;
  C1B : 4C4F454E;
  C1C : 00204445;
  C1D : 57454E4F;
  C1E : 20455249;
  C1F : 00000000;
  C20 : 204D5750;
  C21 : 00000000;
  C22 : 20494453;
  C23 : 00000000;
  C24 : 4E494C53;
  C25 : 0000204B;
  C26 : 20495053;
  C27 : 00000000;
  C28 : 49535953;
  C29 : 204F464E;
  C2A : 00000000;
  C2B : 43415254;
  C2C : 00205245;
  C2D : 474E5254;
  C2E : 00000020;
  C2F : 20445754;
  C30 : 00000000;
  C31 : 20495754;
  C32 : 00000000;
  C33 : 54524155;
  C34 : 00002030;
  C35 : 54524155;
  C36 : 00002031;
  C37 : 20544457;
  C38 : 00000000;
  C39 : 00000A0A;
  C3A : 20656854;
  C3B : 524F454E;
  C3C : 20323356;
  C3D : 43534952;
  C3E : 5020562D;
  C3F : 65636F72;
  C40 : 726F7373;
  C41 : 6967202C;
  C42 : 62756874;
  C43 : 6D6F632E;
  C44 : 6E74732F;
  C45 : 69746C6F;
  C46 : 6E2F676E;
  C47 : 76726F65;
  C48 : 430A3233;
  C49 : 7279706F;
  C4A : 74686769;
  C4B : 29632820;
  C4C : 4F454E20;
  C4D : 32335652;
  C4E : 6E6F6320;
  C4F : 62697274;
  C50 : 726F7475;
  C51 : 430A2E73;
  C52 : 7279706F;
  C53 : 74686769;
  C54 : 29632820;
  C55 : 32303220;
  C56 : 202D2030;
  C57 : 36323032;
  C58 : 7453202C;
  C59 : 61687065;
  C5A : 6F4E206E;
  C5B : 6E69746C;
  C5C : 41202E67;
  C5D : 72206C6C;
  C5E : 74686769;
  C5F : 65722073;
  C60 : 76726573;
  C61 : 0A2E6465;
  C62 : 58445053;
  C63 : 63694C2D;
  C64 : 65736E65;
  C65 : 6564492D;
  C66 : 6669746E;
  C67 : 3A726569;
  C68 : 44534220;
  C69 : 432D332D;
  C6A : 7375616C;
  C6B : 00000A65;
  C6C : 00000000;
  C6D : 00000000;
  C6E : 03000000;
  C6F : 60C7C630;
  C70 : 87F8FC7F;
  C71 : F87FC0C7;
  C72 : FFFC8303;
  C73 : 00C0F0CC;
  C74 : C0CCCC0C;
  C75 : C30F0CC0;
  C76 : D8CC000F;
  C77 : CC0C00C0;
  C78 : 0C01C0C0;
  C79 : 1F8C8303;
  C7A : F8C0CCCF;
  C7B : C0C0CFF8;
  C7C : 030FF806;
  C7D : C6CC1F8F;
  C7E : CC1800C0;
  C7F : 0C186180;
  C80 : 1F8C0303;
  C81 : 00C0C3CC;
  C82 : 330CCC0C;
  C83 : 030F0C60;
  C84 : C187000F;
  C85 : 8C06FC7F;
  C86 : F8FF0C07;
  C87 : FFFCC303;
  C88 : 00000000;
  C89 : 00000000;
  C8A : 03000000;
  C8B : 0000C630;
  C8C : 4453420A;
  C8D : 432D3320;
  C8E : 7375616C;
  C8F : 694C2065;
  C90 : 736E6563;
  C91 : 430A0A65;
  C92 : 7279706F;
  C93 : 74686769;
  C94 : 29632820;
  C95 : 4F454E20;
  C96 : 32335652;
  C97 : 6E6F6320;
  C98 : 62697274;
  C99 : 726F7475;
  C9A : 430A2E73;
  C9B : 7279706F;
  C9C : 74686769;
  C9D : 29632820;
  C9E : 32303220;
  C9F : 202D2030;
  CA0 : 36323032;
  CA1 : 7453202C;
  CA2 : 61687065;
  CA3 : 6F4E206E;
  CA4 : 6E69746C;
  CA5 : 41202E67;
  CA6 : 72206C6C;
  CA7 : 74686769;
  CA8 : 65722073;
  CA9 : 76726573;
  CAA : 0A2E6465;
  CAB : 6465520A;
  CAC : 72747369;
  CAD : 74756269;
  CAE : 206E6F69;
  CAF : 20646E61;
  CB0 : 20657375;
  CB1 : 73206E69;
  CB2 : 6372756F;
  CB3 : 6E612065;
  CB4 : 69622064;
  CB5 : 7972616E;
  CB6 : 726F6620;
  CB7 : 202C736D;
  CB8 : 68746977;
  CB9 : 20726F20;
  CBA : 68746977;
  CBB : 2074756F;
  CBC : 69646F6D;
  CBD : 61636966;
  CBE : 6E6F6974;
  CBF : 7261202C;
  CC0 : 65700A65;
  CC1 : 74696D72;
  CC2 : 20646574;
  CC3 : 766F7270;
  CC4 : 64656469;
  CC5 : 61687420;
  CC6 : 68742074;
  CC7 : 6F662065;
  CC8 : 776F6C6C;
  CC9 : 20676E69;
  CCA : 646E6F63;
  CCB : 6F697469;
  CCC : 6120736E;
  CCD : 6D206572;
  CCE : 0A3A7465;
  CCF : 202E310A;
  CD0 : 69646552;
  CD1 : 69727473;
  CD2 : 69747562;
  CD3 : 20736E6F;
  CD4 : 7320666F;
  CD5 : 6372756F;
  CD6 : 6F632065;
  CD7 : 6D206564;
  CD8 : 20747375;
  CD9 : 61746572;
  CDA : 74206E69;
  CDB : 61206568;
  CDC : 65766F62;
  CDD : 706F6320;
  CDE : 67697279;
  CDF : 6E207468;
  CE0 : 6369746F;
  CE1 : 74202C65;
  CE2 : 20736968;
  CE3 : 7473696C;
  CE4 : 0A666F20;
  CE5 : 63202020;
  CE6 : 69646E6F;
  CE7 : 6E6F6974;
  CE8 : 6E612073;
  CE9 : 68742064;
  CEA : 6F662065;
  CEB : 776F6C6C;
  CEC : 20676E69;
  CED : 63736964;
  CEE : 6D69616C;
  CEF : 0A2E7265;
  CF0 : 202E320A;
  CF1 : 69646552;
  CF2 : 69727473;
  CF3 : 69747562;
  CF4 : 20736E6F;
  CF5 : 62206E69;
  CF6 : 72616E69;
  CF7 : 6F662079;
  CF8 : 6D206D72;
  CF9 : 20747375;
  CFA : 72706572;
  CFB : 6375646F;
  CFC : 68742065;
  CFD : 62612065;
  CFE : 2065766F;
  CFF : 79706F63;
  D00 : 68676972;
  D01 : 6F6E2074;
  D02 : 65636974;
  D03 : 6874202C;
  D04 : 6C207369;
  D05 : 20747369;
  D06 : 200A666F;
  D07 : 6F632020;
  D08 : 7469646E;
  D09 : 736E6F69;
  D0A : 646E6120;
  D0B : 65687420;
  D0C : 6C6F6620;
  D0D : 69776F6C;
  D0E : 6420676E;
  D0F : 6C637369;
  D10 : 656D6961;
  D11 : 6E692072;
  D12 : 65687420;
  D13 : 636F6420;
  D14 : 6E656D75;
  D15 : 69746174;
  D16 : 61206E6F;
  D17 : 6F2F646E;
  D18 : 746F2072;
  D19 : 20726568;
  D1A : 6574616D;
  D1B : 6C616972;
  D1C : 20200A73;
  D1D : 6F727020;
  D1E : 65646976;
  D1F : 69772064;
  D20 : 74206874;
  D21 : 64206568;
  D22 : 72747369;
  D23 : 74756269;
  D24 : 2E6E6F69;
  D25 : 2E330A0A;
  D26 : 69654E20;
  D27 : 72656874;
  D28 : 65687420;
  D29 : 6D616E20;
  D2A : 666F2065;
  D2B : 65687420;
  D2C : 706F6320;
  D2D : 67697279;
  D2E : 68207468;
  D2F : 65646C6F;
  D30 : 6F6E2072;
  D31 : 68742072;
  D32 : 616E2065;
  D33 : 2073656D;
  D34 : 6920666F;
  D35 : 63207374;
  D36 : 72746E6F;
  D37 : 74756269;
  D38 : 2073726F;
  D39 : 2079616D;
  D3A : 75206562;
  D3B : 20646573;
  D3C : 200A6F74;
  D3D : 6E652020;
  D3E : 73726F64;
  D3F : 726F2065;
  D40 : 6F727020;
  D41 : 65746F6D;
  D42 : 6F727020;
  D43 : 74637564;
  D44 : 65642073;
  D45 : 65766972;
  D46 : 72662064;
  D47 : 74206D6F;
  D48 : 20736968;
  D49 : 74666F73;
  D4A : 65726177;
  D4B : 74697720;
  D4C : 74756F68;
  D4D : 65707320;
  D4E : 69666963;
  D4F : 72702063;
  D50 : 20726F69;
  D51 : 74697277;
  D52 : 0A6E6574;
  D53 : 70202020;
  D54 : 696D7265;
  D55 : 6F697373;
  D56 : 0A0A2E6E;
  D57 : 53494854;
  D58 : 464F5320;
  D59 : 52415754;
  D5A : 53492045;
  D5B : 4F525020;
  D5C : 45444956;
  D5D : 59422044;
  D5E : 45485420;
  D5F : 504F4320;
  D60 : 47495259;
  D61 : 48205448;
  D62 : 45444C4F;
  D63 : 41205352;
  D64 : 4320444E;
  D65 : 52544E4F;
  D66 : 54554249;
  D67 : 2053524F;
  D68 : 20534122;
  D69 : 20225349;
  D6A : 20444E41;
  D6B : 20594E41;
  D6C : 52505845;
  D6D : 0A535345;
  D6E : 4920524F;
  D6F : 494C504D;
  D70 : 57204445;
  D71 : 41525241;
  D72 : 4549544E;
  D73 : 49202C53;
  D74 : 554C434E;
  D75 : 474E4944;
  D76 : 5542202C;
  D77 : 4F4E2054;
  D78 : 494C2054;
  D79 : 4554494D;
  D7A : 4F542044;
  D7B : 4854202C;
  D7C : 4D492045;
  D7D : 45494C50;
  D7E : 41572044;
  D7F : 4E415252;
  D80 : 53454954;
  D81 : 0A464F20;
  D82 : 4352454D;
  D83 : 544E4148;
  D84 : 4C494241;
  D85 : 20595449;
  D86 : 20444E41;
  D87 : 4E544946;
  D88 : 20535345;
  D89 : 20524F46;
  D8A : 41502041;
  D8B : 43495452;
  D8C : 52414C55;
  D8D : 52555020;
  D8E : 45534F50;
  D8F : 45524120;
  D90 : 53494420;
  D91 : 49414C43;
  D92 : 2E44454D;
  D93 : 204E4920;
  D94 : 45204F4E;
  D95 : 544E4556;
  D96 : 41485320;
  D97 : 54204C4C;
  D98 : 430A4548;
  D99 : 5259504F;
  D9A : 54484749;
  D9B : 4C4F4820;
  D9C : 20524544;
  D9D : 4320524F;
  D9E : 52544E4F;
  D9F : 54554249;
  DA0 : 2053524F;
  DA1 : 4C204542;
  DA2 : 4C424149;
  DA3 : 4F462045;
  DA4 : 4E412052;
  DA5 : 49442059;
  DA6 : 54434552;
  DA7 : 4E49202C;
  DA8 : 45524944;
  DA9 : 202C5443;
  DAA : 49434E49;
  DAB : 544E4544;
  DAC : 202C4C41;
  DAD : 43455053;
  DAE : 2C4C4149;
  DAF : 4558450A;
  DB0 : 414C504D;
  DB1 : 202C5952;
  DB2 : 4320524F;
  DB3 : 45534E4F;
  DB4 : 4E455551;
  DB5 : 4C414954;
  DB6 : 4D414420;
  DB7 : 53454741;
  DB8 : 4E492820;
  DB9 : 44554C43;
  DBA : 2C474E49;
  DBB : 54554220;
  DBC : 544F4E20;
  DBD : 4D494C20;
  DBE : 44455449;
  DBF : 2C4F5420;
  DC0 : 4F525020;
  DC1 : 45525543;
  DC2 : 544E454D;
  DC3 : 20464F20;
  DC4 : 53425553;
  DC5 : 55544954;
  DC6 : 470A4554;
  DC7 : 53444F4F;
  DC8 : 20524F20;
  DC9 : 56524553;
  DCA : 53454349;
  DCB : 4F4C203B;
  DCC : 4F205353;
  DCD : 53552046;
  DCE : 44202C45;
  DCF : 2C415441;
  DD0 : 20524F20;
  DD1 : 464F5250;
  DD2 : 3B535449;
  DD3 : 20524F20;
  DD4 : 49535542;
  DD5 : 5353454E;
  DD6 : 544E4920;
  DD7 : 55525245;
  DD8 : 4F495450;
  DD9 : 4820294E;
  DDA : 5645574F;
  DDB : 43205245;
  DDC : 45535541;
  DDD : 4E410A44;
  DDE : 4E4F2044;
  DDF : 594E4120;
  DE0 : 45485420;
  DE1 : 2059524F;
  DE2 : 4C20464F;
  DE3 : 49424149;
  DE4 : 5954494C;
  DE5 : 4857202C;
  DE6 : 45485445;
  DE7 : 4E492052;
  DE8 : 4E4F4320;
  DE9 : 43415254;
  DEA : 53202C54;
  DEB : 43495254;
  DEC : 494C2054;
  DED : 4C494241;
  DEE : 2C595449;
  DEF : 20524F20;
  DF0 : 54524F54;
  DF1 : 4E492820;
  DF2 : 44554C43;
  DF3 : 0A474E49;
  DF4 : 4C47454E;
  DF5 : 4E454749;
  DF6 : 4F204543;
  DF7 : 544F2052;
  DF8 : 57524548;
  DF9 : 29455349;
  DFA : 49524120;
  DFB : 474E4953;
  DFC : 204E4920;
  DFD : 20594E41;
  DFE : 20594157;
  DFF : 2054554F;
  E00 : 5420464F;
  E01 : 55204548;
  E02 : 4F204553;
  E03 : 48542046;
  E04 : 53205349;
  E05 : 5754464F;
  E06 : 2C455241;
  E07 : 45564520;
  E08 : 4649204E;
  E09 : 56444120;
  E0A : 44455349;
  E0B : 20464F0A;
  E0C : 20454854;
  E0D : 53534F50;
  E0E : 4C494249;
  E0F : 20595449;
  E10 : 5320464F;
  E11 : 20484355;
  E12 : 414D4144;
  E13 : 0A2E4547;
  E14 : 4450530A;
  E15 : 694C2D58;
  E16 : 736E6563;
  E17 : 64492D65;
  E18 : 69746E65;
  E19 : 72656966;
  E1A : 5342203A;
  E1B : 2D332D44;
  E1C : 75616C43;
  E1D : 0A0A6573;
  E1E : 00000000;
  E1F : 33323130;
  E20 : 37363534;
  E21 : 42413938;
  E22 : 46454443;
  E23 : 00000000;
  E24 : 3B315B1B;
  E25 : 3C6D3133;
  E26 : 524F454E;
  E27 : 2D323356;
  E28 : 2D455452;
  E29 : 494E4150;
  E2A : 00203E43;
  E2B : 7570635B;
  E2C : 00007C31;
  E2D : 7570635B;
  E2E : 00007C30;
  E2F : 00205D4D;
  E30 : 00205D55;
  E31 : 74736E49;
  E32 : 74637572;
  E33 : 206E6F69;
  E34 : 65636361;
  E35 : 66207373;
  E36 : 746C7561;
  E37 : 00000000;
  E38 : 656C6C49;
  E39 : 206C6167;
  E3A : 74736E69;
  E3B : 74637572;
  E3C : 006E6F69;
  E3D : 74736E49;
  E3E : 74637572;
  E3F : 206E6F69;
  E40 : 72646461;
  E41 : 20737365;
  E42 : 6173696D;
  E43 : 6E67696C;
  E44 : 00006465;
  E45 : 69766E45;
  E46 : 6D6E6F72;
  E47 : 20746E65;
  E48 : 61657262;
  E49 : 696F706B;
  E4A : 0000746E;
  E4B : 64616F4C;
  E4C : 64646120;
  E4D : 73736572;
  E4E : 73696D20;
  E4F : 67696C61;
  E50 : 0064656E;
  E51 : 64616F4C;
  E52 : 63636120;
  E53 : 20737365;
  E54 : 6C756166;
  E55 : 00000074;
  E56 : 726F7453;
  E57 : 64612065;
  E58 : 73657264;
  E59 : 696D2073;
  E5A : 696C6173;
  E5B : 64656E67;
  E5C : 00000000;
  E5D : 726F7453;
  E5E : 63612065;
  E5F : 73736563;
  E60 : 75616620;
  E61 : 0000746C;
  E62 : 69766E45;
  E63 : 6D6E6F72;
  E64 : 20746E65;
  E65 : 6C6C6163;
  E66 : 6F726620;
  E67 : 2D55206D;
  E68 : 65646F6D;
  E69 : 00000000;
  E6A : 69766E45;
  E6B : 6D6E6F72;
  E6C : 20746E65;
  E6D : 6C6C6163;
  E6E : 6F726620;
  E6F : 2D4D206D;
  E70 : 65646F6D;
  E71 : 00000000;
  E72 : 6863614D;
  E73 : 20656E69;
  E74 : 74666F73;
  E75 : 65726177;
  E76 : 51524920;
  E77 : 00000000;
  E78 : 6863614D;
  E79 : 20656E69;
  E7A : 656D6974;
  E7B : 52492072;
  E7C : 00000051;
  E7D : 6863614D;
  E7E : 20656E69;
  E7F : 65747865;
  E80 : 6C616E72;
  E81 : 51524920;
  E82 : 00000000;
  E83 : 51524946;
  E84 : 2820302D;
  E85 : 29445754;
  E86 : 00000000;
  E87 : 51524946;
  E88 : 2820312D;
  E89 : 29534643;
  E8A : 00000000;
  E8B : 51524946;
  E8C : 2820322D;
  E8D : 54524155;
  E8E : 00002930;
  E8F : 51524946;
  E90 : 2820332D;
  E91 : 54524155;
  E92 : 00002931;
  E93 : 51524946;
  E94 : 2820342D;
  E95 : 65736572;
  E96 : 64657672;
  E97 : 00000029;
  E98 : 51524946;
  E99 : 2820352D;
  E9A : 43415254;
  E9B : 00295245;
  E9C : 51524946;
  E9D : 2820362D;
  E9E : 29495053;
  E9F : 00000000;
  EA0 : 51524946;
  EA1 : 2820372D;
  EA2 : 29495754;
  EA3 : 00000000;
  EA4 : 51524946;
  EA5 : 2820382D;
  EA6 : 4F495047;
  EA7 : 00000029;
  EA8 : 51524946;
  EA9 : 2820392D;
  EAA : 4C4F454E;
  EAB : 00294445;
  EAC : 51524946;
  EAD : 2030312D;
  EAE : 414D4428;
  EAF : 00000029;
  EB0 : 51524946;
  EB1 : 2031312D;
  EB2 : 49445328;
  EB3 : 00000029;
  EB4 : 51524946;
  EB5 : 2032312D;
  EB6 : 54504728;
  EB7 : 0029524D;
  EB8 : 51524946;
  EB9 : 2033312D;
  EBA : 454E4F28;
  EBB : 45524957;
  EBC : 00000029;
  EBD : 51524946;
  EBE : 2034312D;
  EBF : 494C5328;
  EC0 : 00294B4E;
  EC1 : 51524946;
  EC2 : 2035312D;
  EC3 : 4E525428;
  EC4 : 00002947;
  EC5 : 6E6B6E55;
  EC6 : 206E776F;
  EC7 : 70617274;
  EC8 : 75616320;
  EC9 : 00206573;
  ECA : 50454D20;
  ECB : 00003D43;
  ECC : 49544D20;
  ECD : 3D54534E;
  ECE : 00000000;
  ECF : 56544D20;
  ED0 : 003D4C41;
  ED1 : 73694420;
  ED2 : 696C6261;
  ED3 : 4920676E;
  ED4 : 73205152;
  ED5 : 6372756F;
  ED6 : 00000065;
  ED7 : 54414620;
  ED8 : 20214C41;
  ED9 : 746C6148;
  EDA : 20676E69;
  EDB : 20555043;
  EDC : 454E2F3C;
  EDD : 3356524F;
  EDE : 54522D32;
  EDF : 41502D45;
  EE0 : 3E43494E;
  EE1 : 6D305B1B;
  EE2 : 0000000A;
  EE3 : 4E2F3C20;
  EE4 : 56524F45;
  EE5 : 522D3233;
  EE6 : 502D4554;
  EE7 : 43494E41;
  EE8 : 5B1B0A3E;
  EE9 : 00006D30;
  EEA : 71002474;
  EEB : 710025A4;
  EEC : 710025A4;
  EED : 710025A4;
  EEE : 71002484;
  EEF : 710025A4;
  EF0 : 710025A4;
  EF1 : 710025A4;
  EF2 : 71002494;
  EF3 : 710025A4;
  EF4 : 710025A4;
  EF5 : 710025A4;
  EF6 : 710025A4;
  EF7 : 710024A4;
  EF8 : 710024B4;
  EF9 : 710024C4;
  EFA : 710024D4;
  EFB : 710024E4;
  EFC : 710024F4;
  EFD : 71002504;
  EFE : 71002514;
  EFF : 71002524;
  F00 : 71002534;
  F01 : 71002544;
  F02 : 71002554;
  F03 : 71002564;
  F04 : 71002574;
  F05 : 71002584;
  F06 : 71002594;
  F07 : 710023EC;
  F08 : 710023C4;
  F09 : 710023DC;
  F0A : 71002404;
  F0B : 71002414;
  F0C : 71002424;
  F0D : 71002434;
  F0E : 71002444;
  F0F : 71002454;
  F10 : 710025A4;
  F11 : 710025A4;
  F12 : 71002464;
  F13 : 20202000;
  F14 : 20202020;
  F15 : 28282020;
  F16 : 20282828;
  F17 : 20202020;
  F18 : 20202020;
  F19 : 20202020;
  F1A : 20202020;
  F1B : 10108820;
  F1C : 10101010;
  F1D : 10101010;
  F1E : 10101010;
  F1F : 04040410;
  F20 : 04040404;
  F21 : 10040404;
  F22 : 10101010;
  F23 : 41411010;
  F24 : 41414141;
  F25 : 01010101;
  F26 : 01010101;
  F27 : 01010101;
  F28 : 01010101;
  F29 : 01010101;
  F2A : 10101010;
  F2B : 42421010;
  F2C : 42424242;
  F2D : 02020202;
  F2E : 02020202;
  F2F : 02020202;
  F30 : 02020202;
  F31 : 02020202;
  F32 : 10101010;
  F33 : 00000020;
  F34 : 00000000;
  F35 : 00000000;
  F36 : 00000000;
  F37 : 00000000;
  F38 : 00000000;
  F39 : 00000000;
  F3A : 00000000;
  F3B : 00000000;
  F3C : 00000000;
  F3D : 00000000;
  F3E : 00000000;
  F3F : 00000000;
  F40 : 00000000;
  F41 : 00000000;
  F42 : 00000000;
  F43 : 00000000;
  F44 : 00000000;
  F45 : 00000000;
  F46 : 00000000;
  F47 : 00000000;
  F48 : 00000000;
  F49 : 00000000;
  F4A : 00000000;
  F4B : 00000000;
  F4C : 00000000;
  F4D : 00000000;
  F4E : 00000000;
  F4F : 00000000;
  F50 : 00000000;
  F51 : 00000000;
  F52 : 00000000;
  F53 : 00000000;
END;
