WIDTH=32;
DEPTH=3770;

ADDRESS_RADIX=HEX;
DATA_RADIX=HEX;

CONTENT BEGIN
  00 : 0F004F97;
  01 : 000F8F93;
  02 : 0F004117;
  03 : FF810113;
  04 : 00C000EF;
  05 : 00050F93;
  06 : 0000006F;
  07 : FE010113;
  08 : 00112E23;
  09 : 00812C23;
  0A : 02010413;
  0B : FE042623;
  0C : FE042423;
  0D : FE042223;
  0E : 0BC020EF;
  0F : 00000613;
  10 : 0001C7B7;
  11 : 20078593;
  12 : FFF50537;
  13 : 0F0000EF;
  14 : 7BC020EF;
  15 : FEA42623;
  16 : 0F1010EF;
  17 : 069000EF;
  18 : 710037B7;
  19 : 9DC78593;
  1A : FFF50537;
  1B : 244000EF;
  1C : FEC42603;
  1D : 710037B7;
  1E : A0078593;
  1F : FFF50537;
  20 : 584000EF;
  21 : 7D000593;
  22 : 03B9B7B7;
  23 : CA078513;
  24 : 5E0000EF;
  25 : FC5FF06F;
  26 : FE010113;
  27 : 00812E23;
  28 : 02010413;
  29 : FEA42623;
  2A : FEC42783;
  2B : 00178713;
  2C : 710047B7;
  2D : 9E478793;
  2E : 00F707B3;
  2F : 0007C783;
  30 : 00078513;
  31 : 01C12403;
  32 : 02010113;
  33 : 00008067;
  34 : FE010113;
  35 : 00812E23;
  36 : 02010413;
  37 : FEA42623;
  38 : FEC42703;
  39 : FFF507B7;
  3A : 00F71E63;
  3B : FFFE07B7;
  3C : 0087A783;
  3D : 00078713;
  3E : 000207B7;
  3F : 00F777B3;
  40 : 02C0006F;
  41 : FEC42703;
  42 : FFF607B7;
  43 : 00F71E63;
  44 : FFFE07B7;
  45 : 0087A783;
  46 : 00078713;
  47 : 020007B7;
  48 : 00F777B3;
  49 : 0080006F;
  4A : 00000793;
  4B : 00078513;
  4C : 01C12403;
  4D : 02010113;
  4E : 00008067;
  4F : FD010113;
  50 : 02112623;
  51 : 02812423;
  52 : 03010413;
  53 : FCA42E23;
  54 : FCB42C23;
  55 : FCC42A23;
  56 : FE042623;
  57 : FE042423;
  58 : FDC42783;
  59 : 0007A023;
  5A : FFFE07B7;
  5B : 0007A783;
  5C : FEF42223;
  5D : FD842783;
  5E : 00179793;
  5F : 00078593;
  60 : FE442503;
  61 : 76C020EF;
  62 : 00050793;
  63 : FEF42423;
  64 : 0440006F;
  65 : FEC42703;
  66 : 00200793;
  67 : 00F70863;
  68 : FEC42703;
  69 : 00400793;
  6A : 00F71A63;
  6B : FE842783;
  6C : 0037D793;
  6D : FEF42423;
  6E : 0100006F;
  6F : FE842783;
  70 : 0017D793;
  71 : FEF42423;
  72 : FEC42783;
  73 : 00178793;
  74 : FEF42623;
  75 : FE842703;
  76 : 3FE00793;
  77 : FAE7ECE3;
  78 : FE042023;
  79 : FE042783;
  7A : 0017E793;
  7B : FEF42023;
  7C : FEC42783;
  7D : 00379793;
  7E : 0187F793;
  7F : FE042703;
  80 : 00F767B3;
  81 : FEF42023;
  82 : FE842783;
  83 : FFF78793;
  84 : 00679713;
  85 : 000107B7;
  86 : FFF78793;
  87 : 00F777B3;
  88 : FE042703;
  89 : 00F767B3;
  8A : FEF42023;
  8B : FD442703;
  8C : 00F007B7;
  8D : 00F777B3;
  8E : FE042703;
  8F : 00F767B3;
  90 : FEF42023;
  91 : FDC42783;
  92 : FE042703;
  93 : 00E7A023;
  94 : 00000013;
  95 : 02C12083;
  96 : 02812403;
  97 : 03010113;
  98 : 00008067;
  99 : FE010113;
  9A : 00812E23;
  9B : 02010413;
  9C : FEA42623;
  9D : 00058793;
  9E : FEF405A3;
  9F : 00000013;
  A0 : FEC42783;
  A1 : 0007A703;
  A2 : 000807B7;
  A3 : 00F777B3;
  A4 : FE0788E3;
  A5 : FEB44703;
  A6 : FEC42783;
  A7 : 00E7A223;
  A8 : 00000013;
  A9 : 01C12403;
  AA : 02010113;
  AB : 00008067;
  AC : FD010113;
  AD : 02112623;
  AE : 02812423;
  AF : 03010413;
  B0 : FCA42E23;
  B1 : FCB42C23;
  B2 : FE0407A3;
  B3 : 02C0006F;
  B4 : FEF44703;
  B5 : 00A00793;
  B6 : 00F71863;
  B7 : 00D00593;
  B8 : FDC42503;
  B9 : F81FF0EF;
  BA : FEF44783;
  BB : 00078593;
  BC : FDC42503;
  BD : F71FF0EF;
  BE : FD842783;
  BF : 00178713;
  C0 : FCE42C23;
  C1 : 0007C783;
  C2 : FEF407A3;
  C3 : FEF44783;
  C4 : FC0790E3;
  C5 : 00000013;
  C6 : 00000013;
  C7 : 02C12083;
  C8 : 02812403;
  C9 : 03010113;
  CA : 00008067;
  CB : FB010113;
  CC : 04112623;
  CD : 04812423;
  CE : 05010413;
  CF : FAA42E23;
  D0 : FAB42C23;
  D1 : FAC42A23;
  D2 : FE0403A3;
  D3 : FE042623;
  D4 : FE042423;
  D5 : FE042423;
  D6 : 0200006F;
  D7 : FE842783;
  D8 : FF078793;
  D9 : 008787B3;
  DA : FC078823;
  DB : FE842783;
  DC : 00178793;
  DD : FEF42423;
  DE : FE842703;
  DF : 02300793;
  E0 : FCE7FEE3;
  E1 : 24C0006F;
  E2 : FE744703;
  E3 : 02500793;
  E4 : 20F71C63;
  E5 : FB842783;
  E6 : 00178713;
  E7 : FAE42C23;
  E8 : 0007C783;
  E9 : FEF40323;
  EA : FE644783;
  EB : 00078513;
  EC : CE9FF0EF;
  ED : 00050793;
  EE : 0037F713;
  EF : 00100793;
  F0 : 00F71863;
  F1 : FE644783;
  F2 : 02078793;
  F3 : 0080006F;
  F4 : FE644783;
  F5 : FEF403A3;
  F6 : FE744783;
  F7 : 02500713;
  F8 : 18E78863;
  F9 : 02500713;
  FA : 18E7CE63;
  FB : 07800713;
  FC : 18F74A63;
  FD : 06300713;
  FE : 18E7C663;
  FF : F9D78793;
  100 : 01500713;
  101 : 18F76063;
  102 : 00279713;
  103 : 710037B7;
  104 : A2478793;
  105 : 00F707B3;
  106 : 0007A783;
  107 : 00078067;
  108 : FB442783;
  109 : 00478713;
  10A : FAE42A23;
  10B : 0007A783;
  10C : 00078593;
  10D : FBC42503;
  10E : E79FF0EF;
  10F : 1940006F;
  110 : FB442783;
  111 : 00478713;
  112 : FAE42A23;
  113 : 0007A783;
  114 : 0FF7F793;
  115 : 00078593;
  116 : FBC42503;
  117 : E09FF0EF;
  118 : 1700006F;
  119 : FB442783;
  11A : 00478713;
  11B : FAE42A23;
  11C : 0007A783;
  11D : FEF42623;
  11E : FEC42783;
  11F : 0007DE63;
  120 : FEC42783;
  121 : 40F007B3;
  122 : FEF42623;
  123 : 02D00593;
  124 : FBC42503;
  125 : DD1FF0EF;
  126 : FEC42703;
  127 : FC040793;
  128 : 00A00613;
  129 : 00070593;
  12A : 00078513;
  12B : 27C000EF;
  12C : FC040793;
  12D : 00078593;
  12E : FBC42503;
  12F : DF5FF0EF;
  130 : 1100006F;
  131 : FB442783;
  132 : 00478713;
  133 : FAE42A23;
  134 : 0007A703;
  135 : FC040793;
  136 : 00A00613;
  137 : 00070593;
  138 : 00078513;
  139 : 244000EF;
  13A : FC040793;
  13B : 00078593;
  13C : FBC42503;
  13D : DBDFF0EF;
  13E : 0D80006F;
  13F : FB442783;
  140 : 00478713;
  141 : FAE42A23;
  142 : 0007A703;
  143 : FC040793;
  144 : 01000613;
  145 : 00070593;
  146 : 00078513;
  147 : 20C000EF;
  148 : FC040793;
  149 : 00078513;
  14A : 498020EF;
  14B : 00050713;
  14C : 00800793;
  14D : 40E787B3;
  14E : FEF42423;
  14F : 0100006F;
  150 : 03000593;
  151 : FBC42503;
  152 : D1DFF0EF;
  153 : FE842783;
  154 : FFF78713;
  155 : FEE42423;
  156 : FE0794E3;
  157 : FC040793;
  158 : 00078593;
  159 : FBC42503;
  15A : D49FF0EF;
  15B : 0640006F;
  15C : FE744783;
  15D : 00078593;
  15E : FBC42503;
  15F : CE9FF0EF;
  160 : 0500006F;
  161 : 02500593;
  162 : FBC42503;
  163 : CD9FF0EF;
  164 : FE744783;
  165 : 00078593;
  166 : FBC42503;
  167 : CC9FF0EF;
  168 : 00000013;
  169 : 02C0006F;
  16A : FE744703;
  16B : 00A00793;
  16C : 00F71863;
  16D : 00D00593;
  16E : FBC42503;
  16F : CA9FF0EF;
  170 : FE744783;
  171 : 00078593;
  172 : FBC42503;
  173 : C99FF0EF;
  174 : FB842783;
  175 : 00178713;
  176 : FAE42C23;
  177 : 0007C783;
  178 : FEF403A3;
  179 : FE744783;
  17A : DA0790E3;
  17B : 00000013;
  17C : 00000013;
  17D : 04C12083;
  17E : 04812403;
  17F : 05010113;
  180 : 00008067;
  181 : FB010113;
  182 : 02112623;
  183 : 02812423;
  184 : 03010413;
  185 : FCA42E23;
  186 : FCB42C23;
  187 : 00C42423;
  188 : 00D42623;
  189 : 00E42823;
  18A : 00F42A23;
  18B : 01042C23;
  18C : 01142E23;
  18D : 02040793;
  18E : FCF42A23;
  18F : FD442783;
  190 : FE878793;
  191 : FEF42623;
  192 : FEC42783;
  193 : 00078613;
  194 : FD842583;
  195 : FDC42503;
  196 : CD5FF0EF;
  197 : 00000013;
  198 : 02C12083;
  199 : 02812403;
  19A : 05010113;
  19B : 00008067;
  19C : FC010113;
  19D : 02112E23;
  19E : 02812C23;
  19F : 03212A23;
  1A0 : 03312823;
  1A1 : 04010413;
  1A2 : FCA42623;
  1A3 : FCB42423;
  1A4 : FCC42583;
  1A5 : 00A5D593;
  1A6 : FEB42623;
  1A7 : FEC42583;
  1A8 : 00058713;
  1A9 : 00000793;
  1AA : FC842583;
  1AB : 00058613;
  1AC : 00000693;
  1AD : 00070513;
  1AE : 00078593;
  1AF : 1A0020EF;
  1B0 : 00050713;
  1B1 : 00058793;
  1B2 : FEE42023;
  1B3 : FEF42223;
  1B4 : FE442783;
  1B5 : 01C79793;
  1B6 : FE042703;
  1B7 : 00475913;
  1B8 : 0127E933;
  1B9 : FE442783;
  1BA : 0047D993;
  1BB : FD242E23;
  1BC : FDC42783;
  1BD : 00078A63;
  1BE : 00001863;
  1BF : FFF78793;
  1C0 : 00000013;
  1C1 : FF1FF06F;
  1C2 : FCF42E23;
  1C3 : 00000013;
  1C4 : 03C12083;
  1C5 : 03812403;
  1C6 : 03412903;
  1C7 : 03012983;
  1C8 : 04010113;
  1C9 : 00008067;
  1CA : FA010113;
  1CB : 04112E23;
  1CC : 04812C23;
  1CD : 06010413;
  1CE : FAA42623;
  1CF : FAB42423;
  1D0 : FAC42223;
  1D1 : 710037B7;
  1D2 : A7C78793;
  1D3 : 0007A603;
  1D4 : 0047A683;
  1D5 : 0087A703;
  1D6 : 00C7A783;
  1D7 : FCC42C23;
  1D8 : FCD42E23;
  1D9 : FEE42023;
  1DA : FEF42223;
  1DB : FE042623;
  1DC : FE042423;
  1DD : FE042423;
  1DE : 0200006F;
  1DF : FE842783;
  1E0 : FF078793;
  1E1 : 008787B3;
  1E2 : FC078223;
  1E3 : FE842783;
  1E4 : 00178793;
  1E5 : FEF42423;
  1E6 : FE842703;
  1E7 : 02300793;
  1E8 : FCE7FEE3;
  1E9 : FA442703;
  1EA : 00100793;
  1EB : 00E7F863;
  1EC : FA442703;
  1ED : 01000793;
  1EE : 00E7F863;
  1EF : FAC42783;
  1F0 : 00078023;
  1F1 : 0F00006F;
  1F2 : FE042423;
  1F3 : 0200006F;
  1F4 : FE842783;
  1F5 : FF078793;
  1F6 : 008787B3;
  1F7 : FC078223;
  1F8 : FE842783;
  1F9 : 00178793;
  1FA : FEF42423;
  1FB : FE842703;
  1FC : 02300793;
  1FD : FCE7FEE3;
  1FE : FB440793;
  1FF : 02378793;
  200 : FEF42623;
  201 : FEC42783;
  202 : FFF78793;
  203 : FEF42623;
  204 : FA842783;
  205 : FA442583;
  206 : 00078513;
  207 : 11C020EF;
  208 : 00050793;
  209 : FF078793;
  20A : 008787B3;
  20B : FE87C703;
  20C : FEC42783;
  20D : 00E78023;
  20E : FA442583;
  20F : FA842503;
  210 : 0B0020EF;
  211 : 00050793;
  212 : FAF42423;
  213 : FA842783;
  214 : FA079AE3;
  215 : FE042423;
  216 : 0480006F;
  217 : FE842783;
  218 : FF078793;
  219 : 008787B3;
  21A : FC47C783;
  21B : 02078463;
  21C : FE842783;
  21D : FF078793;
  21E : 008787B3;
  21F : FC47C703;
  220 : FAC42783;
  221 : 00E78023;
  222 : FAC42783;
  223 : 00178793;
  224 : FAF42623;
  225 : FE842783;
  226 : 00178793;
  227 : FEF42423;
  228 : FE842703;
  229 : 02300793;
  22A : FAE7FAE3;
  22B : FAC42783;
  22C : 00078023;
  22D : 05C12083;
  22E : 05812403;
  22F : 06010113;
  230 : 00008067;
  231 : F6010113;
  232 : 08112E23;
  233 : 08812C23;
  234 : 0A010413;
  235 : FFF50537;
  236 : FF8FF0EF;
  237 : 00050793;
  238 : 00079463;
  239 : 7550006F;
  23A : FE042423;
  23B : FE042623;
  23C : 710037B7;
  23D : A8C78593;
  23E : FFF50537;
  23F : D09FF0EF;
  240 : 710037B7;
  241 : AB878593;
  242 : FFF50537;
  243 : CF9FF0EF;
  244 : BC0027F3;
  245 : FCF42423;
  246 : FC842783;
  247 : 0007DC63;
  248 : 710037B7;
  249 : AD078593;
  24A : FFF50537;
  24B : CD9FF0EF;
  24C : 0140006F;
  24D : 710037B7;
  24E : AD878593;
  24F : FFF50537;
  250 : CC5FF0EF;
  251 : FFFE07B7;
  252 : 0047A783;
  253 : 0107D793;
  254 : 00F7F793;
  255 : 00078613;
  256 : 710037B7;
  257 : ADC78593;
  258 : FFF50537;
  259 : CA1FF0EF;
  25A : FFFE07B7;
  25B : 0007A783;
  25C : 00078613;
  25D : 710037B7;
  25E : AF878593;
  25F : FFF50537;
  260 : C85FF0EF;
  261 : 710037B7;
  262 : B1478593;
  263 : FFF50537;
  264 : C75FF0EF;
  265 : FFFE07B7;
  266 : 0087A783;
  267 : 0107F793;
  268 : 00078C63;
  269 : 710037B7;
  26A : B2C78593;
  26B : FFF50537;
  26C : C55FF0EF;
  26D : 0140006F;
  26E : 710037B7;
  26F : B3478593;
  270 : FFF50537;
  271 : C41FF0EF;
  272 : FFFE07B7;
  273 : 0087A703;
  274 : 000017B7;
  275 : 80078793;
  276 : 00F777B3;
  277 : 00078C63;
  278 : 710037B7;
  279 : B4078593;
  27A : FFF50537;
  27B : C19FF0EF;
  27C : 0140006F;
  27D : 710037B7;
  27E : B5478593;
  27F : FFF50537;
  280 : C05FF0EF;
  281 : F14027F3;
  282 : FAF42A23;
  283 : FB442603;
  284 : F12027F3;
  285 : FAF42C23;
  286 : FB842683;
  287 : F13027F3;
  288 : FAF42E23;
  289 : FBC42783;
  28A : 00078713;
  28B : 710037B7;
  28C : B5878593;
  28D : FFF50537;
  28E : BCDFF0EF;
  28F : 710037B7;
  290 : BA878593;
  291 : FFF50537;
  292 : BBDFF0EF;
  293 : F13027F3;
  294 : FCF42023;
  295 : FC042783;
  296 : 00078513;
  297 : 5F1000EF;
  298 : 710037B7;
  299 : BAC78593;
  29A : FFF50537;
  29B : B99FF0EF;
  29C : 710037B7;
  29D : BB078593;
  29E : FFF50537;
  29F : B89FF0EF;
  2A0 : 301027F3;
  2A1 : FCF42223;
  2A2 : FC442783;
  2A3 : FEF42423;
  2A4 : FE842783;
  2A5 : 01E7D793;
  2A6 : FEF42423;
  2A7 : FE842703;
  2A8 : 00100793;
  2A9 : 00F71C63;
  2AA : 710037B7;
  2AB : BC878593;
  2AC : FFF50537;
  2AD : B51FF0EF;
  2AE : 0140006F;
  2AF : 710037B7;
  2B0 : BD478593;
  2B1 : FFF50537;
  2B2 : B3DFF0EF;
  2B3 : 710037B7;
  2B4 : BDC78593;
  2B5 : FFF50537;
  2B6 : B2DFF0EF;
  2B7 : 301027F3;
  2B8 : FAF42823;
  2B9 : FB042783;
  2BA : FEF42423;
  2BB : FE042623;
  2BC : 0540006F;
  2BD : FEC42783;
  2BE : 00100713;
  2BF : 00F717B3;
  2C0 : 00078713;
  2C1 : FE842783;
  2C2 : 00F777B3;
  2C3 : 02078663;
  2C4 : FEC42783;
  2C5 : 0FF7F793;
  2C6 : 04178793;
  2C7 : 0FF7F793;
  2C8 : 00078593;
  2C9 : FFF50537;
  2CA : F3CFF0EF;
  2CB : 02000593;
  2CC : FFF50537;
  2CD : F30FF0EF;
  2CE : FEC42783;
  2CF : 00178793;
  2D0 : FEF42623;
  2D1 : FEC42703;
  2D2 : 01900793;
  2D3 : FAE7D4E3;
  2D4 : FC0027F3;
  2D5 : FAF42623;
  2D6 : FAC42783;
  2D7 : FEF42423;
  2D8 : FE842783;
  2D9 : 4007F793;
  2DA : 00078A63;
  2DB : 710037B7;
  2DC : BF478593;
  2DD : FFF50537;
  2DE : A8DFF0EF;
  2DF : FE842703;
  2E0 : 000017B7;
  2E1 : 80078793;
  2E2 : 00F777B3;
  2E3 : 00078A63;
  2E4 : 710037B7;
  2E5 : BFC78593;
  2E6 : FFF50537;
  2E7 : A69FF0EF;
  2E8 : FE842783;
  2E9 : 1007F793;
  2EA : 00078A63;
  2EB : 710037B7;
  2EC : C0478593;
  2ED : FFF50537;
  2EE : A4DFF0EF;
  2EF : FE842703;
  2F0 : 020007B7;
  2F1 : 00F777B3;
  2F2 : 00078A63;
  2F3 : 710037B7;
  2F4 : C0C78593;
  2F5 : FFF50537;
  2F6 : A2DFF0EF;
  2F7 : FE842703;
  2F8 : 040007B7;
  2F9 : 00F777B3;
  2FA : 00078A63;
  2FB : 710037B7;
  2FC : C1478593;
  2FD : FFF50537;
  2FE : A0DFF0EF;
  2FF : FE842703;
  300 : 100007B7;
  301 : 00F777B3;
  302 : 00078A63;
  303 : 710037B7;
  304 : C1C78593;
  305 : FFF50537;
  306 : 9EDFF0EF;
  307 : FE842703;
  308 : 080007B7;
  309 : 00F777B3;
  30A : 00078A63;
  30B : 710037B7;
  30C : C2478593;
  30D : FFF50537;
  30E : 9CDFF0EF;
  30F : FE842703;
  310 : 004007B7;
  311 : 00F777B3;
  312 : 00078A63;
  313 : 710037B7;
  314 : C2C78593;
  315 : FFF50537;
  316 : 9ADFF0EF;
  317 : FE842703;
  318 : 008007B7;
  319 : 00F777B3;
  31A : 00078A63;
  31B : 710037B7;
  31C : C3478593;
  31D : FFF50537;
  31E : 98DFF0EF;
  31F : FE842703;
  320 : 000107B7;
  321 : 00F777B3;
  322 : 00078A63;
  323 : 710037B7;
  324 : C3C78593;
  325 : FFF50537;
  326 : 96DFF0EF;
  327 : FE842703;
  328 : 000207B7;
  329 : 00F777B3;
  32A : 00078A63;
  32B : 710037B7;
  32C : C4478593;
  32D : FFF50537;
  32E : 94DFF0EF;
  32F : FE842703;
  330 : 000017B7;
  331 : 00F777B3;
  332 : 00078A63;
  333 : 710037B7;
  334 : C4C78593;
  335 : FFF50537;
  336 : 92DFF0EF;
  337 : FE842703;
  338 : 010007B7;
  339 : 00F777B3;
  33A : 00078A63;
  33B : 710037B7;
  33C : C5478593;
  33D : FFF50537;
  33E : 90DFF0EF;
  33F : FE842783;
  340 : 0207F793;
  341 : 00078A63;
  342 : 710037B7;
  343 : C5C78593;
  344 : FFF50537;
  345 : 8F1FF0EF;
  346 : FE842783;
  347 : 0807F793;
  348 : 00078A63;
  349 : 710037B7;
  34A : C6478593;
  34B : FFF50537;
  34C : 8D5FF0EF;
  34D : FE842783;
  34E : 0407F793;
  34F : 00078A63;
  350 : 710037B7;
  351 : C6C78593;
  352 : FFF50537;
  353 : 8B9FF0EF;
  354 : FE842783;
  355 : 0017F793;
  356 : 00078A63;
  357 : 710037B7;
  358 : C7478593;
  359 : FFF50537;
  35A : 89DFF0EF;
  35B : FE842783;
  35C : 0027F793;
  35D : 00078A63;
  35E : 710037B7;
  35F : C7C78593;
  360 : FFF50537;
  361 : 881FF0EF;
  362 : FE842783;
  363 : 2007F793;
  364 : 00078A63;
  365 : 710037B7;
  366 : C8878593;
  367 : FFF50537;
  368 : 865FF0EF;
  369 : FE842703;
  36A : 000407B7;
  36B : 00F777B3;
  36C : 00078A63;
  36D : 710037B7;
  36E : C9078593;
  36F : FFF50537;
  370 : 845FF0EF;
  371 : FE842703;
  372 : 000027B7;
  373 : 00F777B3;
  374 : 00078A63;
  375 : 710037B7;
  376 : C9878593;
  377 : FFF50537;
  378 : 825FF0EF;
  379 : FE842703;
  37A : 000047B7;
  37B : 00F777B3;
  37C : 00078A63;
  37D : 710037B7;
  37E : CA078593;
  37F : FFF50537;
  380 : 805FF0EF;
  381 : FE842703;
  382 : 000087B7;
  383 : 00F777B3;
  384 : 00078A63;
  385 : 710037B7;
  386 : CA878593;
  387 : FFF50537;
  388 : FE4FF0EF;
  389 : FE842703;
  38A : 002007B7;
  38B : 00F777B3;
  38C : 00078A63;
  38D : 710037B7;
  38E : CB078593;
  38F : FFF50537;
  390 : FC4FF0EF;
  391 : FE842703;
  392 : 001007B7;
  393 : 00F777B3;
  394 : 00078A63;
  395 : 710037B7;
  396 : CB878593;
  397 : FFF50537;
  398 : FA4FF0EF;
  399 : FE842703;
  39A : 000807B7;
  39B : 00F777B3;
  39C : 00078A63;
  39D : 710037B7;
  39E : CC078593;
  39F : FFF50537;
  3A0 : F84FF0EF;
  3A1 : FE842783;
  3A2 : 0107F793;
  3A3 : 00078A63;
  3A4 : 710037B7;
  3A5 : CC878593;
  3A6 : FFF50537;
  3A7 : F68FF0EF;
  3A8 : FE842783;
  3A9 : 0047F793;
  3AA : 00078A63;
  3AB : 710037B7;
  3AC : CD078593;
  3AD : FFF50537;
  3AE : F4CFF0EF;
  3AF : FE842783;
  3B0 : 0087F793;
  3B1 : 00078A63;
  3B2 : 710037B7;
  3B3 : CD878593;
  3B4 : FFF50537;
  3B5 : F30FF0EF;
  3B6 : BC0027F3;
  3B7 : FAF42423;
  3B8 : FA842783;
  3B9 : FEF42423;
  3BA : 710037B7;
  3BB : CE078593;
  3BC : FFF50537;
  3BD : F10FF0EF;
  3BE : FE842703;
  3BF : 040007B7;
  3C0 : 00F777B3;
  3C1 : 00078A63;
  3C2 : 710037B7;
  3C3 : CF878593;
  3C4 : FFF50537;
  3C5 : EF0FF0EF;
  3C6 : FE842703;
  3C7 : 080007B7;
  3C8 : 00F777B3;
  3C9 : 00078A63;
  3CA : 710037B7;
  3CB : D0078593;
  3CC : FFF50537;
  3CD : ED0FF0EF;
  3CE : FE842703;
  3CF : 200007B7;
  3D0 : 00F777B3;
  3D1 : 00078A63;
  3D2 : 710037B7;
  3D3 : D0C78593;
  3D4 : FFF50537;
  3D5 : EB0FF0EF;
  3D6 : FE842703;
  3D7 : 400007B7;
  3D8 : 00F777B3;
  3D9 : 00078A63;
  3DA : 710037B7;
  3DB : D1878593;
  3DC : FFF50537;
  3DD : E90FF0EF;
  3DE : FE842703;
  3DF : 100007B7;
  3E0 : 00F777B3;
  3E1 : 00078A63;
  3E2 : 710037B7;
  3E3 : D2478593;
  3E4 : FFF50537;
  3E5 : E70FF0EF;
  3E6 : 710037B7;
  3E7 : D3078593;
  3E8 : FFF50537;
  3E9 : E60FF0EF;
  3EA : 2ED000EF;
  3EB : FEA42223;
  3EC : FE442783;
  3ED : 14078263;
  3EE : 46D000EF;
  3EF : 00050793;
  3F0 : 00078693;
  3F1 : FE442603;
  3F2 : 710037B7;
  3F3 : D4878593;
  3F4 : FFF50537;
  3F5 : E30FF0EF;
  3F6 : FA042023;
  3F7 : FA042783;
  3F8 : F8F42E23;
  3F9 : F9C42783;
  3FA : 3A079073;
  3FB : 00000013;
  3FC : 3A0027F3;
  3FD : FAF42223;
  3FE : FA442783;
  3FF : 0FF7F793;
  400 : 00079A63;
  401 : 710037B7;
  402 : D7478593;
  403 : FFF50537;
  404 : DF4FF0EF;
  405 : 00800793;
  406 : F8F42A23;
  407 : F9442783;
  408 : F8F42823;
  409 : F9042783;
  40A : 3A079073;
  40B : 00000013;
  40C : 3A0027F3;
  40D : F8F42C23;
  40E : F9842783;
  40F : 0FF7F713;
  410 : 00800793;
  411 : 00F71A63;
  412 : 710037B7;
  413 : D7C78593;
  414 : FFF50537;
  415 : DB0FF0EF;
  416 : 01000793;
  417 : F8F42423;
  418 : F8842783;
  419 : F8F42223;
  41A : F8442783;
  41B : 3A079073;
  41C : 00000013;
  41D : 3A0027F3;
  41E : F8F42623;
  41F : F8C42783;
  420 : 0FF7F713;
  421 : 01000793;
  422 : 00F71A63;
  423 : 710037B7;
  424 : D8478593;
  425 : FFF50537;
  426 : D6CFF0EF;
  427 : 01800793;
  428 : F6F42E23;
  429 : F7C42783;
  42A : F6F42C23;
  42B : F7842783;
  42C : 3A079073;
  42D : 00000013;
  42E : 3A0027F3;
  42F : F8F42023;
  430 : F8042783;
  431 : 0FF7F713;
  432 : 01800793;
  433 : 00F71A63;
  434 : 710037B7;
  435 : D8C78593;
  436 : FFF50537;
  437 : D28FF0EF;
  438 : F6042A23;
  439 : F7442783;
  43A : F6F42823;
  43B : F7042783;
  43C : 3A079073;
  43D : 0140006F;
  43E : 710037B7;
  43F : D9478593;
  440 : FFF50537;
  441 : D00FF0EF;
  442 : 710037B7;
  443 : D9C78593;
  444 : FFF50537;
  445 : CF0FF0EF;
  446 : 3D9000EF;
  447 : FEA42023;
  448 : FE042783;
  449 : 02078463;
  44A : 6C9000EF;
  44B : 00050793;
  44C : 00078693;
  44D : FE042603;
  44E : 710037B7;
  44F : DB478593;
  450 : FFF50537;
  451 : CC0FF0EF;
  452 : 0140006F;
  453 : 710037B7;
  454 : D9478593;
  455 : FFF50537;
  456 : CACFF0EF;
  457 : 710037B7;
  458 : DD478593;
  459 : FFF50537;
  45A : C9CFF0EF;
  45B : FFFE07B7;
  45C : 0047A783;
  45D : 0147D793;
  45E : 0037F793;
  45F : FCF42E23;
  460 : FDC42703;
  461 : 00200793;
  462 : 04F70863;
  463 : FDC42703;
  464 : 00200793;
  465 : 04E7CC63;
  466 : FDC42783;
  467 : 00078A63;
  468 : FDC42703;
  469 : 00100793;
  46A : 00F70E63;
  46B : 0400006F;
  46C : 710037B7;
  46D : DEC78593;
  46E : FFF50537;
  46F : C48FF0EF;
  470 : 0440006F;
  471 : 710037B7;
  472 : E0878593;
  473 : FFF50537;
  474 : C34FF0EF;
  475 : 0300006F;
  476 : 710037B7;
  477 : E2878593;
  478 : FFF50537;
  479 : C20FF0EF;
  47A : 01C0006F;
  47B : FDC42603;
  47C : 710037B7;
  47D : E4C78593;
  47E : FFF50537;
  47F : C08FF0EF;
  480 : 00000013;
  481 : 710037B7;
  482 : E5C78593;
  483 : FFF50537;
  484 : BF4FF0EF;
  485 : FFFE07B7;
  486 : 0087A783;
  487 : 0047F793;
  488 : 04078463;
  489 : FFFE07B7;
  48A : 0047A783;
  48B : 0FF7F793;
  48C : F6F42623;
  48D : F6C42783;
  48E : 00078A63;
  48F : F6C42783;
  490 : 00100713;
  491 : 00F717B3;
  492 : 0080006F;
  493 : 00000793;
  494 : 00078613;
  495 : 710037B7;
  496 : E7478593;
  497 : FFF50537;
  498 : BA4FF0EF;
  499 : 0140006F;
  49A : 710037B7;
  49B : E8078593;
  49C : FFF50537;
  49D : B90FF0EF;
  49E : 710037B7;
  49F : E8878593;
  4A0 : FFF50537;
  4A1 : B80FF0EF;
  4A2 : FFFE07B7;
  4A3 : 0087A783;
  4A4 : 0087F793;
  4A5 : 04078663;
  4A6 : FFFE07B7;
  4A7 : 0047A783;
  4A8 : 0087D793;
  4A9 : 0FF7F793;
  4AA : F6F42423;
  4AB : F6842783;
  4AC : 00078A63;
  4AD : F6842783;
  4AE : 00100713;
  4AF : 00F717B3;
  4B0 : 0080006F;
  4B1 : 00000793;
  4B2 : 00078613;
  4B3 : 710037B7;
  4B4 : E7478593;
  4B5 : FFF50537;
  4B6 : B2CFF0EF;
  4B7 : 0140006F;
  4B8 : 710037B7;
  4B9 : E8078593;
  4BA : FFF50537;
  4BB : B18FF0EF;
  4BC : 710037B7;
  4BD : EA078593;
  4BE : FFF50537;
  4BF : B08FF0EF;
  4C0 : FFFE07B7;
  4C1 : 0087A783;
  4C2 : 0207F793;
  4C3 : 06078C63;
  4C4 : FFFE07B7;
  4C5 : 00C7A783;
  4C6 : 00F7F793;
  4C7 : FCF42C23;
  4C8 : FD842783;
  4C9 : 00100713;
  4CA : 00F717B3;
  4CB : FCF42C23;
  4CC : FFFE07B7;
  4CD : 00C7A783;
  4CE : 0047D793;
  4CF : 00F7F793;
  4D0 : FCF42A23;
  4D1 : FD442783;
  4D2 : 00100713;
  4D3 : 00F717B3;
  4D4 : FCF42A23;
  4D5 : FD842583;
  4D6 : FD442503;
  4D7 : 4DC010EF;
  4D8 : 00050793;
  4D9 : FD842703;
  4DA : FD442683;
  4DB : 00078613;
  4DC : 710037B7;
  4DD : EB878593;
  4DE : FFF50537;
  4DF : A88FF0EF;
  4E0 : 0140006F;
  4E1 : 710037B7;
  4E2 : D9478593;
  4E3 : FFF50537;
  4E4 : A74FF0EF;
  4E5 : FFFE07B7;
  4E6 : 00C7A703;
  4E7 : 000107B7;
  4E8 : 00F777B3;
  4E9 : 00078C63;
  4EA : 710037B7;
  4EB : ECC78593;
  4EC : FFF50537;
  4ED : A50FF0EF;
  4EE : 0140006F;
  4EF : 710037B7;
  4F0 : B5478593;
  4F1 : FFF50537;
  4F2 : A3CFF0EF;
  4F3 : 710037B7;
  4F4 : EE078593;
  4F5 : FFF50537;
  4F6 : A2CFF0EF;
  4F7 : FFFE07B7;
  4F8 : 0087A783;
  4F9 : 0407F793;
  4FA : 06078E63;
  4FB : FFFE07B7;
  4FC : 00C7A783;
  4FD : 0087D793;
  4FE : 00F7F793;
  4FF : FCF42823;
  500 : FD042783;
  501 : 00100713;
  502 : 00F717B3;
  503 : FCF42823;
  504 : FFFE07B7;
  505 : 00C7A783;
  506 : 00C7D793;
  507 : 00F7F793;
  508 : FCF42623;
  509 : FCC42783;
  50A : 00100713;
  50B : 00F717B3;
  50C : FCF42623;
  50D : FD042583;
  50E : FCC42503;
  50F : 3FC010EF;
  510 : 00050793;
  511 : FD042703;
  512 : FCC42683;
  513 : 00078613;
  514 : 710037B7;
  515 : EB878593;
  516 : FFF50537;
  517 : 9A8FF0EF;
  518 : 0140006F;
  519 : 710037B7;
  51A : D9478593;
  51B : FFF50537;
  51C : 994FF0EF;
  51D : FFFE07B7;
  51E : 00C7A703;
  51F : 010007B7;
  520 : 00F777B3;
  521 : 00078C63;
  522 : 710037B7;
  523 : ECC78593;
  524 : FFF50537;
  525 : 970FF0EF;
  526 : 0140006F;
  527 : 710037B7;
  528 : B5478593;
  529 : FFF50537;
  52A : 95CFF0EF;
  52B : 710037B7;
  52C : EF878593;
  52D : FFF50537;
  52E : 94CFF0EF;
  52F : FFFE07B7;
  530 : 0087A783;
  531 : FEF42423;
  532 : FE842783;
  533 : 0027F793;
  534 : 00078C63;
  535 : 710037B7;
  536 : B2C78593;
  537 : FFF50537;
  538 : 924FF0EF;
  539 : 0140006F;
  53A : 710037B7;
  53B : D9478593;
  53C : FFF50537;
  53D : 910FF0EF;
  53E : FFFE07B7;
  53F : 00C7A703;
  540 : 010107B7;
  541 : 00F777B3;
  542 : 00078C63;
  543 : 710037B7;
  544 : ECC78593;
  545 : FFF50537;
  546 : 8ECFF0EF;
  547 : 0140006F;
  548 : 710037B7;
  549 : B5478593;
  54A : FFF50537;
  54B : 8D8FF0EF;
  54C : FFFE07B7;
  54D : 0047A783;
  54E : 01B7D793;
  54F : 01F7F793;
  550 : F6F42023;
  551 : F6042783;
  552 : 00078A63;
  553 : F6042783;
  554 : 00100713;
  555 : 00F717B3;
  556 : 0080006F;
  557 : 00000793;
  558 : 00078613;
  559 : 710037B7;
  55A : F1078593;
  55B : FFF50537;
  55C : 894FF0EF;
  55D : FFFE07B7;
  55E : 0047A783;
  55F : 01B7D793;
  560 : 01F7F793;
  561 : F6F42223;
  562 : F6442783;
  563 : 00078A63;
  564 : F6442783;
  565 : 00100713;
  566 : 00F717B3;
  567 : 0080006F;
  568 : 00000793;
  569 : 00078613;
  56A : 710037B7;
  56B : F3078593;
  56C : FFF50537;
  56D : 850FF0EF;
  56E : 710037B7;
  56F : F5078593;
  570 : FFF50537;
  571 : 840FF0EF;
  572 : FFFE07B7;
  573 : 0087A783;
  574 : FEF42423;
  575 : FE842703;
  576 : 004007B7;
  577 : 00F777B3;
  578 : 00078A63;
  579 : 710037B7;
  57A : F6878593;
  57B : FFF50537;
  57C : 814FF0EF;
  57D : FE842703;
  57E : 000107B7;
  57F : 00F777B3;
  580 : 00078A63;
  581 : 710037B7;
  582 : F7078593;
  583 : FFF50537;
  584 : FF5FE0EF;
  585 : FE842703;
  586 : 000047B7;
  587 : 00F777B3;
  588 : 00078A63;
  589 : 710037B7;
  58A : F7878593;
  58B : FFF50537;
  58C : FD5FE0EF;
  58D : FE842703;
  58E : 000087B7;
  58F : 00F777B3;
  590 : 00078A63;
  591 : 710037B7;
  592 : F8078593;
  593 : FFF50537;
  594 : FB5FE0EF;
  595 : FE842703;
  596 : 100007B7;
  597 : 00F777B3;
  598 : 00078A63;
  599 : 710037B7;
  59A : F8878593;
  59B : FFF50537;
  59C : F95FE0EF;
  59D : FE842703;
  59E : 040007B7;
  59F : 00F777B3;
  5A0 : 00078A63;
  5A1 : 710037B7;
  5A2 : F9078593;
  5A3 : FFF50537;
  5A4 : F75FE0EF;
  5A5 : FE842703;
  5A6 : 400007B7;
  5A7 : 00F777B3;
  5A8 : 00078A63;
  5A9 : 710037B7;
  5AA : F9878593;
  5AB : FFF50537;
  5AC : F55FE0EF;
  5AD : FE842703;
  5AE : 001007B7;
  5AF : 00F777B3;
  5B0 : 00078A63;
  5B1 : 710037B7;
  5B2 : FA478593;
  5B3 : FFF50537;
  5B4 : F35FE0EF;
  5B5 : FE842703;
  5B6 : 010007B7;
  5B7 : 00F777B3;
  5B8 : 00078A63;
  5B9 : 710037B7;
  5BA : FAC78593;
  5BB : FFF50537;
  5BC : F15FE0EF;
  5BD : FE842703;
  5BE : 200007B7;
  5BF : 00F777B3;
  5C0 : 00078A63;
  5C1 : 710037B7;
  5C2 : FB478593;
  5C3 : FFF50537;
  5C4 : EF5FE0EF;
  5C5 : FE842703;
  5C6 : 000407B7;
  5C7 : 00F777B3;
  5C8 : 00078A63;
  5C9 : 710037B7;
  5CA : FBC78593;
  5CB : FFF50537;
  5CC : ED5FE0EF;
  5CD : 710037B7;
  5CE : FC478593;
  5CF : FFF50537;
  5D0 : EC5FE0EF;
  5D1 : FE842703;
  5D2 : 080007B7;
  5D3 : 00F777B3;
  5D4 : 00078A63;
  5D5 : 710037B7;
  5D6 : FD078593;
  5D7 : FFF50537;
  5D8 : EA5FE0EF;
  5D9 : FE842703;
  5DA : 008007B7;
  5DB : 00F777B3;
  5DC : 00078A63;
  5DD : 710037B7;
  5DE : FD878593;
  5DF : FFF50537;
  5E0 : E85FE0EF;
  5E1 : FE842703;
  5E2 : 000027B7;
  5E3 : 00F777B3;
  5E4 : 00078A63;
  5E5 : 710037B7;
  5E6 : FE078593;
  5E7 : FFF50537;
  5E8 : E65FE0EF;
  5E9 : FE842703;
  5EA : 000807B7;
  5EB : 00F777B3;
  5EC : 00078A63;
  5ED : 710037B7;
  5EE : FE878593;
  5EF : FFF50537;
  5F0 : E45FE0EF;
  5F1 : FE842703;
  5F2 : 000207B7;
  5F3 : 00F777B3;
  5F4 : 00078A63;
  5F5 : 710037B7;
  5F6 : FF078593;
  5F7 : FFF50537;
  5F8 : E25FE0EF;
  5F9 : FE842703;
  5FA : 020007B7;
  5FB : 00F777B3;
  5FC : 00078A63;
  5FD : 710037B7;
  5FE : FF878593;
  5FF : FFF50537;
  600 : E05FE0EF;
  601 : FE842703;
  602 : 002007B7;
  603 : 00F777B3;
  604 : 00078A63;
  605 : 710037B7;
  606 : 00078593;
  607 : FFF50537;
  608 : DE5FE0EF;
  609 : 710037B7;
  60A : 00878593;
  60B : FFF50537;
  60C : DD5FE0EF;
  60D : 0080006F;
  60E : 00000013;
  60F : 09C12083;
  610 : 09812403;
  611 : 0A010113;
  612 : 00008067;
  613 : FD010113;
  614 : 02112623;
  615 : 02812423;
  616 : 03010413;
  617 : FCA42E23;
  618 : FE042623;
  619 : FE0405A3;
  61A : FE040523;
  61B : FFF50537;
  61C : 861FE0EF;
  61D : 00050793;
  61E : 0A078E63;
  61F : FE042623;
  620 : 0A80006F;
  621 : 00300713;
  622 : FEC42783;
  623 : 40F707B3;
  624 : 00379793;
  625 : FDC42703;
  626 : 00F757B3;
  627 : FEF405A3;
  628 : FE040523;
  629 : 01C0006F;
  62A : FEB44783;
  62B : FF078793;
  62C : FEF405A3;
  62D : FEA44783;
  62E : 00178793;
  62F : FEF40523;
  630 : FEB44703;
  631 : 00F00793;
  632 : FEE7E0E3;
  633 : FEA44783;
  634 : 00078E63;
  635 : FEA44783;
  636 : 03078793;
  637 : 0FF7F793;
  638 : 00078593;
  639 : FFF50537;
  63A : 97DFE0EF;
  63B : FEB44783;
  63C : 03078793;
  63D : 0FF7F793;
  63E : 00078593;
  63F : FFF50537;
  640 : 965FE0EF;
  641 : FEC42703;
  642 : 00200793;
  643 : 00E7E863;
  644 : 02E00593;
  645 : FFF50537;
  646 : 94DFE0EF;
  647 : FEC42783;
  648 : 00178793;
  649 : FEF42623;
  64A : FEC42703;
  64B : 00300793;
  64C : F4E7FAE3;
  64D : 00000013;
  64E : 02C12083;
  64F : 02812403;
  650 : 03010113;
  651 : 00008067;
  652 : F6010113;
  653 : 08112E23;
  654 : 08812C23;
  655 : 0A010413;
  656 : 710037B7;
  657 : 0D478713;
  658 : F6040793;
  659 : 00070693;
  65A : 07E00713;
  65B : 00070613;
  65C : 00068593;
  65D : 00078513;
  65E : 024010EF;
  65F : FE042623;
  660 : FE042423;
  661 : FE042223;
  662 : FE041123;
  663 : FE0400A3;
  664 : FFF50537;
  665 : F3CFE0EF;
  666 : 00050793;
  667 : 0E078263;
  668 : FE042423;
  669 : 0C00006F;
  66A : 710037B7;
  66B : B5478593;
  66C : FFF50537;
  66D : 8FDFE0EF;
  66E : FE042623;
  66F : 0900006F;
  670 : FE842703;
  671 : 00070793;
  672 : 00379793;
  673 : 40E787B3;
  674 : FEC42703;
  675 : 00E787B3;
  676 : 00179793;
  677 : FF078793;
  678 : 008787B3;
  679 : F707D783;
  67A : FEF41123;
  67B : FE042223;
  67C : 0440006F;
  67D : 02000793;
  67E : FEF400A3;
  67F : FE241783;
  680 : 0007D663;
  681 : 02300793;
  682 : FEF400A3;
  683 : FE144783;
  684 : 00078593;
  685 : FFF50537;
  686 : 84DFE0EF;
  687 : FE245783;
  688 : 00179793;
  689 : FEF41123;
  68A : FE442783;
  68B : 00178793;
  68C : FEF42223;
  68D : FE442703;
  68E : 00F00793;
  68F : FAE7FCE3;
  690 : FEC42783;
  691 : 00178793;
  692 : FEF42623;
  693 : FEC42703;
  694 : 00600793;
  695 : F6E7F6E3;
  696 : FE842783;
  697 : 00178793;
  698 : FEF42423;
  699 : FE842703;
  69A : 00800793;
  69B : F2E7FEE3;
  69C : 710037B7;
  69D : B5478593;
  69E : FFF50537;
  69F : 835FE0EF;
  6A0 : 00000013;
  6A1 : 09C12083;
  6A2 : 09812403;
  6A3 : 0A010113;
  6A4 : 00008067;
  6A5 : FB010113;
  6A6 : 04812623;
  6A7 : 05010413;
  6A8 : FC0027F3;
  6A9 : FEF42223;
  6AA : FE442783;
  6AB : 1007F793;
  6AC : 00079663;
  6AD : 00000793;
  6AE : 15C0006F;
  6AF : 010107B7;
  6B0 : 10178793;
  6B1 : FEF42623;
  6B2 : FEC42783;
  6B3 : FAF42C23;
  6B4 : FB842783;
  6B5 : FAF42A23;
  6B6 : FB442783;
  6B7 : 3A079073;
  6B8 : 00000013;
  6B9 : FEC42783;
  6BA : FCF42023;
  6BB : FC042783;
  6BC : FAF42E23;
  6BD : FBC42783;
  6BE : 3A179073;
  6BF : 00000013;
  6C0 : FEC42783;
  6C1 : FCF42423;
  6C2 : FC842783;
  6C3 : FCF42223;
  6C4 : FC442783;
  6C5 : 3A279073;
  6C6 : 00000013;
  6C7 : FEC42783;
  6C8 : FCF42823;
  6C9 : FD042783;
  6CA : FCF42623;
  6CB : FCC42783;
  6CC : 3A379073;
  6CD : 00000013;
  6CE : FA042823;
  6CF : 3A0027F3;
  6D0 : FCF42A23;
  6D1 : FD442703;
  6D2 : FEC42783;
  6D3 : 00F77733;
  6D4 : FB042783;
  6D5 : 00F707B3;
  6D6 : FAF42823;
  6D7 : 3A1027F3;
  6D8 : FCF42C23;
  6D9 : FD842703;
  6DA : FEC42783;
  6DB : 00F77733;
  6DC : FB042783;
  6DD : 00F707B3;
  6DE : FAF42823;
  6DF : 3A2027F3;
  6E0 : FCF42E23;
  6E1 : FDC42703;
  6E2 : FEC42783;
  6E3 : 00F77733;
  6E4 : FB042783;
  6E5 : 00F707B3;
  6E6 : FAF42823;
  6E7 : 3A3027F3;
  6E8 : FEF42023;
  6E9 : FE042703;
  6EA : FEC42783;
  6EB : 00F77733;
  6EC : FB042783;
  6ED : 00F707B3;
  6EE : FAF42823;
  6EF : FE042423;
  6F0 : FB044783;
  6F1 : 00078713;
  6F2 : FE842783;
  6F3 : 00E787B3;
  6F4 : FEF42423;
  6F5 : FB144783;
  6F6 : 00078713;
  6F7 : FE842783;
  6F8 : 00E787B3;
  6F9 : FEF42423;
  6FA : FB244783;
  6FB : 00078713;
  6FC : FE842783;
  6FD : 00E787B3;
  6FE : FEF42423;
  6FF : FB344783;
  700 : 00078713;
  701 : FE842783;
  702 : 00E787B3;
  703 : FEF42423;
  704 : FE842783;
  705 : 00078513;
  706 : 04C12403;
  707 : 05010113;
  708 : 00008067;
  709 : FD010113;
  70A : 02812623;
  70B : 03010413;
  70C : FC0027F3;
  70D : FEF42223;
  70E : FE442783;
  70F : 1007F793;
  710 : 00079663;
  711 : 00000793;
  712 : 0980006F;
  713 : FC042A23;
  714 : FD442783;
  715 : FCF42823;
  716 : FD042783;
  717 : 3A079073;
  718 : 00000013;
  719 : FFF00793;
  71A : FCF42E23;
  71B : FDC42783;
  71C : FCF42C23;
  71D : FD842783;
  71E : 3B079073;
  71F : 00000013;
  720 : 3B0027F3;
  721 : FEF42023;
  722 : FE042783;
  723 : FEF42623;
  724 : FEC42783;
  725 : 00079663;
  726 : 00000793;
  727 : 0440006F;
  728 : 00200793;
  729 : FEF42423;
  72A : FEC42783;
  72B : 0017F793;
  72C : 02079063;
  72D : FEC42783;
  72E : 0017D793;
  72F : FEF42623;
  730 : FE842783;
  731 : 00178793;
  732 : FEF42423;
  733 : FDDFF06F;
  734 : 00000013;
  735 : FE842783;
  736 : 00100713;
  737 : 00F717B3;
  738 : 00078513;
  739 : 02C12403;
  73A : 03010113;
  73B : 00008067;
  73C : F4010113;
  73D : 0A812E23;
  73E : 0C010413;
  73F : FC0027F3;
  740 : FEF42423;
  741 : FE842783;
  742 : 2007F793;
  743 : 00079663;
  744 : 00000793;
  745 : 2CC0006F;
  746 : FF800793;
  747 : F4F42423;
  748 : F4842783;
  749 : F4F42223;
  74A : F4442783;
  74B : 3207A073;
  74C : 00000013;
  74D : 00100793;
  74E : F4F42823;
  74F : F5042783;
  750 : F4F42623;
  751 : F4C42783;
  752 : B0379073;
  753 : 00000013;
  754 : 00100793;
  755 : F4F42C23;
  756 : F5842783;
  757 : F4F42A23;
  758 : F5442783;
  759 : B0479073;
  75A : 00000013;
  75B : 00100793;
  75C : F6F42023;
  75D : F6042783;
  75E : F4F42E23;
  75F : F5C42783;
  760 : B0579073;
  761 : 00000013;
  762 : 00100793;
  763 : F6F42423;
  764 : F6842783;
  765 : F6F42223;
  766 : F6442783;
  767 : B0679073;
  768 : 00000013;
  769 : 00100793;
  76A : F6F42823;
  76B : F7042783;
  76C : F6F42623;
  76D : F6C42783;
  76E : B0779073;
  76F : 00000013;
  770 : 00100793;
  771 : F6F42C23;
  772 : F7842783;
  773 : F6F42A23;
  774 : F7442783;
  775 : B0879073;
  776 : 00000013;
  777 : 00100793;
  778 : F8F42023;
  779 : F8042783;
  77A : F6F42E23;
  77B : F7C42783;
  77C : B0979073;
  77D : 00000013;
  77E : 00100793;
  77F : F8F42423;
  780 : F8842783;
  781 : F8F42223;
  782 : F8442783;
  783 : B0A79073;
  784 : 00000013;
  785 : 00100793;
  786 : F8F42823;
  787 : F9042783;
  788 : F8F42623;
  789 : F8C42783;
  78A : B0B79073;
  78B : 00000013;
  78C : 00100793;
  78D : F8F42C23;
  78E : F9842783;
  78F : F8F42A23;
  790 : F9442783;
  791 : B0C79073;
  792 : 00000013;
  793 : 00100793;
  794 : FAF42023;
  795 : FA042783;
  796 : F8F42E23;
  797 : F9C42783;
  798 : B0D79073;
  799 : 00000013;
  79A : 00100793;
  79B : FAF42423;
  79C : FA842783;
  79D : FAF42223;
  79E : FA442783;
  79F : B0E79073;
  7A0 : 00000013;
  7A1 : 00100793;
  7A2 : FAF42823;
  7A3 : FB042783;
  7A4 : FAF42623;
  7A5 : FAC42783;
  7A6 : B0F79073;
  7A7 : 00000013;
  7A8 : FE042623;
  7A9 : B03027F3;
  7AA : FAF42A23;
  7AB : FB442783;
  7AC : FEC42703;
  7AD : 00F707B3;
  7AE : FEF42623;
  7AF : B04027F3;
  7B0 : FAF42C23;
  7B1 : FB842783;
  7B2 : FEC42703;
  7B3 : 00F707B3;
  7B4 : FEF42623;
  7B5 : B05027F3;
  7B6 : FAF42E23;
  7B7 : FBC42783;
  7B8 : FEC42703;
  7B9 : 00F707B3;
  7BA : FEF42623;
  7BB : B06027F3;
  7BC : FCF42023;
  7BD : FC042783;
  7BE : FEC42703;
  7BF : 00F707B3;
  7C0 : FEF42623;
  7C1 : B07027F3;
  7C2 : FCF42223;
  7C3 : FC442783;
  7C4 : FEC42703;
  7C5 : 00F707B3;
  7C6 : FEF42623;
  7C7 : B08027F3;
  7C8 : FCF42423;
  7C9 : FC842783;
  7CA : FEC42703;
  7CB : 00F707B3;
  7CC : FEF42623;
  7CD : B09027F3;
  7CE : FCF42623;
  7CF : FCC42783;
  7D0 : FEC42703;
  7D1 : 00F707B3;
  7D2 : FEF42623;
  7D3 : B0A027F3;
  7D4 : FCF42823;
  7D5 : FD042783;
  7D6 : FEC42703;
  7D7 : 00F707B3;
  7D8 : FEF42623;
  7D9 : B0B027F3;
  7DA : FCF42A23;
  7DB : FD442783;
  7DC : FEC42703;
  7DD : 00F707B3;
  7DE : FEF42623;
  7DF : B0C027F3;
  7E0 : FCF42C23;
  7E1 : FD842783;
  7E2 : FEC42703;
  7E3 : 00F707B3;
  7E4 : FEF42623;
  7E5 : B0D027F3;
  7E6 : FCF42E23;
  7E7 : FDC42783;
  7E8 : FEC42703;
  7E9 : 00F707B3;
  7EA : FEF42623;
  7EB : B0E027F3;
  7EC : FEF42023;
  7ED : FE042783;
  7EE : FEC42703;
  7EF : 00F707B3;
  7F0 : FEF42623;
  7F1 : B0F027F3;
  7F2 : FEF42223;
  7F3 : FE442783;
  7F4 : FEC42703;
  7F5 : 00F707B3;
  7F6 : FEF42623;
  7F7 : FEC42783;
  7F8 : 00078513;
  7F9 : 0BC12403;
  7FA : 0C010113;
  7FB : 00008067;
  7FC : FC010113;
  7FD : 02812E23;
  7FE : 04010413;
  7FF : FE042623;
  800 : FE042423;
  801 : FC0027F3;
  802 : FEF42223;
  803 : FE442783;
  804 : 2007F793;
  805 : 00079663;
  806 : 00000793;
  807 : 0C80006F;
  808 : 00800793;
  809 : FCF42623;
  80A : FCC42783;
  80B : FCF42423;
  80C : FC842783;
  80D : 3207A073;
  80E : 00000013;
  80F : FFF00793;
  810 : FCF42A23;
  811 : FD442783;
  812 : FCF42823;
  813 : FD042783;
  814 : B0379073;
  815 : 00000013;
  816 : FFF00793;
  817 : FCF42E23;
  818 : FDC42783;
  819 : FCF42C23;
  81A : FD842783;
  81B : B8379073;
  81C : 00000013;
  81D : FE042423;
  81E : B03027F3;
  81F : FEF42023;
  820 : FE042783;
  821 : FEF42623;
  822 : 01C0006F;
  823 : FE842783;
  824 : 00178793;
  825 : FEF42423;
  826 : FEC42783;
  827 : 0017D793;
  828 : FEF42623;
  829 : FEC42783;
  82A : FE0792E3;
  82B : B83027F3;
  82C : FCF42223;
  82D : FC442783;
  82E : FEF42623;
  82F : 01C0006F;
  830 : FE842783;
  831 : 00178793;
  832 : FEF42423;
  833 : FEC42783;
  834 : 0017D793;
  835 : FEF42623;
  836 : FEC42783;
  837 : FE0792E3;
  838 : FE842783;
  839 : 00078513;
  83A : 03C12403;
  83B : 04010113;
  83C : 00008067;
  83D : FD010113;
  83E : 02812623;
  83F : 03010413;
  840 : 000027B7;
  841 : 80078793;
  842 : FCF42A23;
  843 : FD442783;
  844 : FCF42823;
  845 : FD042783;
  846 : 30079073;
  847 : 00000013;
  848 : 710027B7;
  849 : 1E478793;
  84A : FFC7F793;
  84B : FCF42E23;
  84C : FDC42783;
  84D : FCF42C23;
  84E : FD842783;
  84F : 30579073;
  850 : 00000013;
  851 : FE042223;
  852 : FE442783;
  853 : FEF42023;
  854 : FE042783;
  855 : 30479073;
  856 : 00000013;
  857 : F14027F3;
  858 : FEF42423;
  859 : FE842783;
  85A : 06079463;
  85B : FE042623;
  85C : 0540006F;
  85D : 710027B7;
  85E : 35878713;
  85F : 800007B7;
  860 : 00078693;
  861 : FEC42783;
  862 : 00279793;
  863 : 00F687B3;
  864 : 00E7A023;
  865 : 710027B7;
  866 : 35878713;
  867 : 800007B7;
  868 : 00078693;
  869 : FEC42783;
  86A : 02078793;
  86B : 00279793;
  86C : 00F687B3;
  86D : 00E7A023;
  86E : FEC42783;
  86F : 00178793;
  870 : FEF42623;
  871 : FEC42703;
  872 : 01F00793;
  873 : FAE7D4E3;
  874 : 0FF0000F;
  875 : 00000013;
  876 : 02C12403;
  877 : 03010113;
  878 : 00008067;
  879 : 34011073;
  87A : F8010113;
  87B : 00112223;
  87C : 340110F3;
  87D : 00112423;
  87E : 00312623;
  87F : 00412823;
  880 : 00512A23;
  881 : 00612C23;
  882 : 00712E23;
  883 : 02812023;
  884 : 02912223;
  885 : 02A12423;
  886 : 02B12623;
  887 : 02C12823;
  888 : 02D12A23;
  889 : 02E12C23;
  88A : 02F12E23;
  88B : 05012023;
  88C : 05112223;
  88D : 05212423;
  88E : 05312623;
  88F : 05412823;
  890 : 05512A23;
  891 : 05612C23;
  892 : 05712E23;
  893 : 07812023;
  894 : 07912223;
  895 : 07A12423;
  896 : 07B12623;
  897 : 07C12823;
  898 : 07D12A23;
  899 : 07E12C23;
  89A : 07F12E23;
  89B : 0FF0000F;
  89C : 342027F3;
  89D : 00078093;
  89E : 00008793;
  89F : 00078093;
  8A0 : 01F0D693;
  8A1 : 01F0F793;
  8A2 : 80000737;
  8A3 : 00070713;
  8A4 : 00569693;
  8A5 : 00F687B3;
  8A6 : 00279793;
  8A7 : 00F707B3;
  8A8 : 0007A783;
  8A9 : 00078493;
  8AA : 000480E7;
  8AB : 342027F3;
  8AC : 00078493;
  8AD : 00048793;
  8AE : 0007CE63;
  8AF : 341027F3;
  8B0 : 00078493;
  8B1 : 00048793;
  8B2 : 00478493;
  8B3 : 34149073;
  8B4 : 00000013;
  8B5 : 00412083;
  8B6 : 00C12183;
  8B7 : 01012203;
  8B8 : 01412283;
  8B9 : 01812303;
  8BA : 01C12383;
  8BB : 02012403;
  8BC : 02412483;
  8BD : 02812503;
  8BE : 02C12583;
  8BF : 03012603;
  8C0 : 03412683;
  8C1 : 03812703;
  8C2 : 03C12783;
  8C3 : 04012803;
  8C4 : 04412883;
  8C5 : 04812903;
  8C6 : 04C12983;
  8C7 : 05012A03;
  8C8 : 05412A83;
  8C9 : 05812B03;
  8CA : 05C12B83;
  8CB : 06012C03;
  8CC : 06412C83;
  8CD : 06812D03;
  8CE : 06C12D83;
  8CF : 07012E03;
  8D0 : 07412E83;
  8D1 : 07812F03;
  8D2 : 07C12F83;
  8D3 : 00812103;
  8D4 : 30200073;
  8D5 : 00000013;
  8D6 : FC010113;
  8D7 : 02112E23;
  8D8 : 02812C23;
  8D9 : 04010413;
  8DA : FFF50537;
  8DB : D65FD0EF;
  8DC : 00050793;
  8DD : 32078863;
  8DE : 710037B7;
  8DF : 7A078513;
  8E0 : 338000EF;
  8E1 : F14027F3;
  8E2 : FEF42423;
  8E3 : FE842783;
  8E4 : 0017F793;
  8E5 : 00078A63;
  8E6 : 710037B7;
  8E7 : 7B078513;
  8E8 : 318000EF;
  8E9 : 0100006F;
  8EA : 710037B7;
  8EB : 7B878513;
  8EC : 308000EF;
  8ED : 300027F3;
  8EE : FEF42223;
  8EF : FE442703;
  8F0 : 000027B7;
  8F1 : 80078793;
  8F2 : 00F777B3;
  8F3 : 00078A63;
  8F4 : 710037B7;
  8F5 : 7C078513;
  8F6 : 2E0000EF;
  8F7 : 0100006F;
  8F8 : 710037B7;
  8F9 : 7C478513;
  8FA : 2D0000EF;
  8FB : 342027F3;
  8FC : FEF42023;
  8FD : FE042783;
  8FE : FEF42623;
  8FF : FEC42703;
  900 : 800007B7;
  901 : 01F78793;
  902 : 18E7E463;
  903 : FEC42703;
  904 : 800007B7;
  905 : 01078793;
  906 : 14F77E63;
  907 : FEC42703;
  908 : 800007B7;
  909 : 00B78793;
  90A : 12F70E63;
  90B : FEC42703;
  90C : 800007B7;
  90D : 00B78793;
  90E : 14E7EC63;
  90F : FEC42703;
  910 : 800007B7;
  911 : 00778793;
  912 : 10F70663;
  913 : FEC42703;
  914 : 800007B7;
  915 : 00778793;
  916 : 12E7EC63;
  917 : FEC42703;
  918 : 00B00793;
  919 : 02E7E663;
  91A : FEC42703;
  91B : 00B00793;
  91C : 12E7E063;
  91D : FEC42783;
  91E : 00279713;
  91F : 710047B7;
  920 : 9B478793;
  921 : 00F707B3;
  922 : 0007A783;
  923 : 00078067;
  924 : FEC42703;
  925 : 800007B7;
  926 : 00378793;
  927 : 0AF70463;
  928 : 0F00006F;
  929 : 710037B7;
  92A : 7C878513;
  92B : 20C000EF;
  92C : 0FC0006F;
  92D : 710037B7;
  92E : 7E478513;
  92F : 1FC000EF;
  930 : 0EC0006F;
  931 : 710037B7;
  932 : 7F878513;
  933 : 1EC000EF;
  934 : 0DC0006F;
  935 : 710047B7;
  936 : 81878513;
  937 : 1DC000EF;
  938 : 0CC0006F;
  939 : 710047B7;
  93A : 83078513;
  93B : 1CC000EF;
  93C : 0BC0006F;
  93D : 710047B7;
  93E : 84878513;
  93F : 1BC000EF;
  940 : 0AC0006F;
  941 : 710047B7;
  942 : 85C78513;
  943 : 1AC000EF;
  944 : 09C0006F;
  945 : 710047B7;
  946 : 87878513;
  947 : 19C000EF;
  948 : 08C0006F;
  949 : 710047B7;
  94A : 88C78513;
  94B : 18C000EF;
  94C : 07C0006F;
  94D : 710047B7;
  94E : 8AC78513;
  94F : 17C000EF;
  950 : 06C0006F;
  951 : 710047B7;
  952 : 8CC78513;
  953 : 16C000EF;
  954 : 05C0006F;
  955 : 710047B7;
  956 : 8E478513;
  957 : 15C000EF;
  958 : 04C0006F;
  959 : 710047B7;
  95A : 8F878513;
  95B : 14C000EF;
  95C : 03C0006F;
  95D : 710047B7;
  95E : 91078513;
  95F : 13C000EF;
  960 : 00100593;
  961 : FEC42503;
  962 : 174000EF;
  963 : 0200006F;
  964 : 710047B7;
  965 : 91C78513;
  966 : 120000EF;
  967 : 00800593;
  968 : FEC42503;
  969 : 158000EF;
  96A : 00000013;
  96B : 710047B7;
  96C : 93078513;
  96D : 104000EF;
  96E : 341027F3;
  96F : FCF42A23;
  970 : FD442783;
  971 : 00800593;
  972 : 00078513;
  973 : 130000EF;
  974 : 710047B7;
  975 : 93878513;
  976 : 0E0000EF;
  977 : 34A027F3;
  978 : FCF42C23;
  979 : FD842783;
  97A : 00800593;
  97B : 00078513;
  97C : 10C000EF;
  97D : 710047B7;
  97E : 94478513;
  97F : 0BC000EF;
  980 : 343027F3;
  981 : FCF42E23;
  982 : FDC42783;
  983 : 00800593;
  984 : 00078513;
  985 : 0E8000EF;
  986 : FEC42783;
  987 : 0207DC63;
  988 : 710047B7;
  989 : 94C78513;
  98A : 090000EF;
  98B : FEC42783;
  98C : 01F7F793;
  98D : 00100713;
  98E : 00F717B3;
  98F : FCF42823;
  990 : FD042783;
  991 : FCF42623;
  992 : FCC42783;
  993 : 3047B073;
  994 : 00000013;
  995 : FEC42703;
  996 : 00100793;
  997 : 00F70663;
  998 : FEC42783;
  999 : 02079863;
  99A : 710047B7;
  99B : 96478513;
  99C : 048000EF;
  99D : FC042423;
  99E : FC842783;
  99F : FCF42223;
  9A0 : FC442783;
  9A1 : 30479073;
  9A2 : 00000013;
  9A3 : 10500073;
  9A4 : FFDFF06F;
  9A5 : 710047B7;
  9A6 : 98C78513;
  9A7 : 01C000EF;
  9A8 : 0080006F;
  9A9 : 00000013;
  9AA : 03C12083;
  9AB : 03812403;
  9AC : 04010113;
  9AD : 00008067;
  9AE : FE010113;
  9AF : 00112E23;
  9B0 : 00812C23;
  9B1 : 02010413;
  9B2 : FEA42623;
  9B3 : FFF50537;
  9B4 : A01FD0EF;
  9B5 : 00050793;
  9B6 : 00078863;
  9B7 : FEC42583;
  9B8 : FFF50537;
  9B9 : BCDFD0EF;
  9BA : 00000013;
  9BB : 01C12083;
  9BC : 01812403;
  9BD : 02010113;
  9BE : 00008067;
  9BF : FC010113;
  9C0 : 02112E23;
  9C1 : 02812C23;
  9C2 : 04010413;
  9C3 : FCA42623;
  9C4 : FCB42423;
  9C5 : FE042623;
  9C6 : 710047B7;
  9C7 : 9A078793;
  9C8 : 0007A583;
  9C9 : 0047A603;
  9CA : 0087A683;
  9CB : 00C7A703;
  9CC : FCB42A23;
  9CD : FCC42C23;
  9CE : FCD42E23;
  9CF : FEE42023;
  9D0 : 0107C783;
  9D1 : FEF40223;
  9D2 : FFF50537;
  9D3 : 985FD0EF;
  9D4 : 00050793;
  9D5 : 08078063;
  9D6 : 03000593;
  9D7 : FFF50537;
  9D8 : B05FD0EF;
  9D9 : 07800593;
  9DA : FFF50537;
  9DB : AF9FD0EF;
  9DC : FC842783;
  9DD : FF878793;
  9DE : FEF42623;
  9DF : 04C0006F;
  9E0 : 00700713;
  9E1 : FEC42783;
  9E2 : 40F707B3;
  9E3 : 00279793;
  9E4 : FCC42703;
  9E5 : 00F757B3;
  9E6 : 00F7F793;
  9E7 : FEF42423;
  9E8 : FE842783;
  9E9 : FF078793;
  9EA : 008787B3;
  9EB : FE47C783;
  9EC : 00078593;
  9ED : FFF50537;
  9EE : AADFD0EF;
  9EF : FEC42783;
  9F0 : 00178793;
  9F1 : FEF42623;
  9F2 : FEC42703;
  9F3 : 00700793;
  9F4 : FAE7D8E3;
  9F5 : 00000013;
  9F6 : 03C12083;
  9F7 : 03812403;
  9F8 : 04010113;
  9F9 : 00008067;
  9FA : FF010113;
  9FB : 00812623;
  9FC : 01010413;
  9FD : FFFC07B7;
  9FE : 0007A783;
  9FF : 00078513;
  A00 : 00C12403;
  A01 : 01010113;
  A02 : 00008067;
  A03 : FF010113;
  A04 : 00112623;
  A05 : 00812423;
  A06 : 01010413;
  A07 : FCDFF0EF;
  A08 : 00050793;
  A09 : 00078513;
  A0A : 00C12083;
  A0B : 00812403;
  A0C : 01010113;
  A0D : 00008067;
  A0E : 00050613;
  A0F : 00000513;
  A10 : 0015F693;
  A11 : 00068463;
  A12 : 00C50533;
  A13 : 0015D593;
  A14 : 00161613;
  A15 : FE0596E3;
  A16 : 00008067;
  A17 : 00050E13;
  A18 : FF010113;
  A19 : 00068313;
  A1A : 00112623;
  A1B : 00060513;
  A1C : 000E0893;
  A1D : 00060693;
  A1E : 00000713;
  A1F : 00000793;
  A20 : 00000813;
  A21 : 0016FE93;
  A22 : 00171613;
  A23 : 000E8A63;
  A24 : 01088833;
  A25 : 00E787B3;
  A26 : 01183733;
  A27 : 00F707B3;
  A28 : 01F8D713;
  A29 : 0016D693;
  A2A : 00E66733;
  A2B : 00189893;
  A2C : FC069AE3;
  A2D : 00058663;
  A2E : F81FF0EF;
  A2F : 00A787B3;
  A30 : 00030A63;
  A31 : 000E0513;
  A32 : 00030593;
  A33 : F6DFF0EF;
  A34 : 00F507B3;
  A35 : 00C12083;
  A36 : 00080513;
  A37 : 00078593;
  A38 : 01010113;
  A39 : 00008067;
  A3A : 06054063;
  A3B : 0605C663;
  A3C : 00058613;
  A3D : 00050593;
  A3E : FFF00513;
  A3F : 02060C63;
  A40 : 00100693;
  A41 : 00B67A63;
  A42 : 00C05863;
  A43 : 00161613;
  A44 : 00169693;
  A45 : FEB66AE3;
  A46 : 00000513;
  A47 : 00C5E663;
  A48 : 40C585B3;
  A49 : 00D56533;
  A4A : 0016D693;
  A4B : 00165613;
  A4C : FE0696E3;
  A4D : 00008067;
  A4E : 00008293;
  A4F : FB5FF0EF;
  A50 : 00058513;
  A51 : 00028067;
  A52 : 40A00533;
  A53 : 00B04863;
  A54 : 40B005B3;
  A55 : F9DFF06F;
  A56 : 40B005B3;
  A57 : 00008293;
  A58 : F91FF0EF;
  A59 : 40A00533;
  A5A : 00028067;
  A5B : 00008293;
  A5C : 0005CA63;
  A5D : 00054C63;
  A5E : F79FF0EF;
  A5F : 00058513;
  A60 : 00028067;
  A61 : 40B005B3;
  A62 : FE0558E3;
  A63 : 40A00533;
  A64 : F61FF0EF;
  A65 : 40B00533;
  A66 : 00028067;
  A67 : 00050313;
  A68 : 00060E63;
  A69 : 00058383;
  A6A : 00730023;
  A6B : FFF60613;
  A6C : 00130313;
  A6D : 00158593;
  A6E : FE0616E3;
  A6F : 00008067;
  A70 : 00050793;
  A71 : 0007C703;
  A72 : 00178793;
  A73 : FE071CE3;
  A74 : 40A78533;
  A75 : FFF50513;
  A76 : 00008067;
  A77 : 524F454E;
  A78 : 3A323356;
  A79 : 6C654820;
  A7A : 77206F6C;
  A7B : 646C726F;
  A7C : 6F726620;
  A7D : 7559206D;
  A7E : 6E65696C;
  A7F : 00000A21;
  A80 : 524F454E;
  A81 : 3A323356;
  A82 : 756F4620;
  A83 : 5320646E;
  A84 : 72204244;
  A85 : 20746F6F;
  A86 : 30207461;
  A87 : 0A782578;
  A88 : 00000000;
  A89 : 71000440;
  A8A : 71000464;
  A8B : 71000584;
  A8C : 71000584;
  A8D : 71000584;
  A8E : 71000584;
  A8F : 71000464;
  A90 : 71000584;
  A91 : 71000584;
  A92 : 71000584;
  A93 : 71000584;
  A94 : 71000584;
  A95 : 71000584;
  A96 : 710004FC;
  A97 : 71000584;
  A98 : 71000584;
  A99 : 71000420;
  A9A : 71000584;
  A9B : 710004C4;
  A9C : 71000584;
  A9D : 71000584;
  A9E : 710004FC;
  A9F : 33323130;
  AA0 : 37363534;
  AA1 : 62613938;
  AA2 : 66656463;
  AA3 : 3C3C0A0A;
  AA4 : 4F454E20;
  AA5 : 32335652;
  AA6 : 6F725020;
  AA7 : 73736563;
  AA8 : 4320726F;
  AA9 : 69666E6F;
  AAA : 61727567;
  AAB : 6E6F6974;
  AAC : 0A3E3E20;
  AAD : 0000000A;
  AAE : 73207349;
  AAF : 6C756D69;
  AB0 : 6F697461;
  AB1 : 20203A6E;
  AB2 : 20202020;
  AB3 : 00000020;
  AB4 : 0A736579;
  AB5 : 00000000;
  AB6 : 000A6F6E;
  AB7 : 20555043;
  AB8 : 65726F63;
  AB9 : 68282073;
  ABA : 73747261;
  ABB : 20203A29;
  ABC : 0A752520;
  ABD : 00000000;
  ABE : 636F6C43;
  ABF : 7073206B;
  AC0 : 3A646565;
  AC1 : 20202020;
  AC2 : 20202020;
  AC3 : 20752520;
  AC4 : 000A7A48;
  AC5 : 632D6E4F;
  AC6 : 20706968;
  AC7 : 75626564;
  AC8 : 72656767;
  AC9 : 2020203A;
  ACA : 00000020;
  ACB : 62616E65;
  ACC : 0064656C;
  ACD : 61736964;
  ACE : 64656C62;
  ACF : 00000000;
  AD0 : 61202B20;
  AD1 : 65687475;
  AD2 : 6369746E;
  AD3 : 6F697461;
  AD4 : 00000A6E;
  AD5 : 0000000A;
  AD6 : 74726148;
  AD7 : 3A444920;
  AD8 : 20202020;
  AD9 : 20202020;
  ADA : 20202020;
  ADB : 25783020;
  ADC : 72410A78;
  ADD : 74696863;
  ADE : 75746365;
  ADF : 49206572;
  AE0 : 20203A44;
  AE1 : 30202020;
  AE2 : 0A782578;
  AE3 : 6C706D49;
  AE4 : 6E656D65;
  AE5 : 69746174;
  AE6 : 49206E6F;
  AE7 : 20203A44;
  AE8 : 25783020;
  AE9 : 00000078;
  AEA : 00762820;
  AEB : 00000A29;
  AEC : 68637241;
  AED : 63657469;
  AEE : 65727574;
  AEF : 2020203A;
  AF0 : 20202020;
  AF1 : 00000020;
  AF2 : 32337672;
  AF3 : 74696C2D;
  AF4 : 00656C74;
  AF5 : 6E6B6E75;
  AF6 : 006E776F;
  AF7 : 4153490A;
  AF8 : 74786520;
  AF9 : 69736E65;
  AFA : 3A736E6F;
  AFB : 20202020;
  AFC : 00002020;
  AFD : 78656453;
  AFE : 00002074;
  AFF : 72746453;
  B00 : 00206769;
  B01 : 6D706D53;
  B02 : 00002070;
  B03 : 6D61615A;
  B04 : 0000206F;
  B05 : 726C615A;
  B06 : 00206373;
  B07 : 2061635A;
  B08 : 00000000;
  B09 : 2062635A;
  B0A : 00000000;
  B0B : 2061625A;
  B0C : 00000000;
  B0D : 2062625A;
  B0E : 00000000;
  B0F : 626B625A;
  B10 : 00000020;
  B11 : 636B625A;
  B12 : 00000020;
  B13 : 786B625A;
  B14 : 00000020;
  B15 : 2073625A;
  B16 : 00000000;
  B17 : 6E69665A;
  B18 : 00002078;
  B19 : 6E63695A;
  B1A : 00207274;
  B1B : 6F63695A;
  B1C : 0020646E;
  B1D : 7363695A;
  B1E : 00002072;
  B1F : 6566695A;
  B20 : 6965636E;
  B21 : 00000020;
  B22 : 7068695A;
  B23 : 0000206D;
  B24 : 206E6B5A;
  B25 : 00000000;
  B26 : 646E6B5A;
  B27 : 00000020;
  B28 : 656E6B5A;
  B29 : 00000020;
  B2A : 686E6B5A;
  B2B : 00000020;
  B2C : 20736B5A;
  B2D : 00000000;
  B2E : 65736B5A;
  B2F : 00002064;
  B30 : 68736B5A;
  B31 : 00000020;
  B32 : 20746B5A;
  B33 : 00000000;
  B34 : 756D6D5A;
  B35 : 0000206C;
  B36 : 6663785A;
  B37 : 00002075;
  B38 : 6E75540A;
  B39 : 20676E69;
  B3A : 6974706F;
  B3B : 3A736E6F;
  B3C : 20202020;
  B3D : 00002020;
  B3E : 63617274;
  B3F : 00002065;
  B40 : 736E6F63;
  B41 : 625F7474;
  B42 : 00002072;
  B43 : 74736166;
  B44 : 6C756D5F;
  B45 : 00000020;
  B46 : 74736166;
  B47 : 6968735F;
  B48 : 00207466;
  B49 : 685F6672;
  B4A : 73725F77;
  B4B : 00002074;
  B4C : 7968500A;
  B4D : 4D202E73;
  B4E : 726F6D65;
  B4F : 72502079;
  B50 : 3A2E746F;
  B51 : 00002020;
  B52 : 72207525;
  B53 : 6F696765;
  B54 : 2973286E;
  B55 : 7525202C;
  B56 : 74796220;
  B57 : 67207365;
  B58 : 756E6172;
  B59 : 6972616C;
  B5A : 202C7974;
  B5B : 65646F6D;
  B5C : 003D2073;
  B5D : 46464F20;
  B5E : 00000000;
  B5F : 524F5420;
  B60 : 00000000;
  B61 : 34414E20;
  B62 : 00000000;
  B63 : 50414E20;
  B64 : 0000544F;
  B65 : 656E6F6E;
  B66 : 00000000;
  B67 : 4D50480A;
  B68 : 756F6320;
  B69 : 7265746E;
  B6A : 20203A73;
  B6B : 20202020;
  B6C : 00002020;
  B6D : 63207525;
  B6E : 746E756F;
  B6F : 73287265;
  B70 : 25202C29;
  B71 : 69622075;
  B72 : 29732874;
  B73 : 64697720;
  B74 : 00000065;
  B75 : 6F6F420A;
  B76 : 6F632074;
  B77 : 6769666E;
  B78 : 74617275;
  B79 : 3A6E6F69;
  B7A : 00002020;
  B7B : 746F6F62;
  B7C : 61697620;
  B7D : 6F6F6220;
  B7E : 616F6C74;
  B7F : 20726564;
  B80 : 0A293028;
  B81 : 00000000;
  B82 : 746F6F62;
  B83 : 6F726620;
  B84 : 7563206D;
  B85 : 6D6F7473;
  B86 : 64646120;
  B87 : 73736572;
  B88 : 29312820;
  B89 : 0000000A;
  B8A : 746F6F62;
  B8B : 6F726620;
  B8C : 7270206D;
  B8D : 6E692D65;
  B8E : 61697469;
  B8F : 657A696C;
  B90 : 4D492064;
  B91 : 28204D45;
  B92 : 000A2932;
  B93 : 6E6B6E75;
  B94 : 206E776F;
  B95 : 29752528;
  B96 : 0000000A;
  B97 : 65746E49;
  B98 : 6C616E72;
  B99 : 454D4920;
  B9A : 20203A4D;
  B9B : 20202020;
  B9C : 00000020;
  B9D : 62207525;
  B9E : 73657479;
  B9F : 0000000A;
  BA0 : 656E6F6E;
  BA1 : 0000000A;
  BA2 : 65746E49;
  BA3 : 6C616E72;
  BA4 : 454D4420;
  BA5 : 20203A4D;
  BA6 : 20202020;
  BA7 : 00000020;
  BA8 : 20555043;
  BA9 : 61632D49;
  BAA : 3A656863;
  BAB : 20202020;
  BAC : 20202020;
  BAD : 00000020;
  BAE : 62207525;
  BAF : 73657479;
  BB0 : 75252820;
  BB1 : 29752578;
  BB2 : 00000000;
  BB3 : 7562202C;
  BB4 : 73747372;
  BB5 : 616E6520;
  BB6 : 64656C62;
  BB7 : 0000000A;
  BB8 : 20555043;
  BB9 : 61632D44;
  BBA : 3A656863;
  BBB : 20202020;
  BBC : 20202020;
  BBD : 00000020;
  BBE : 2E747845;
  BBF : 73756220;
  BC0 : 746E6920;
  BC1 : 61667265;
  BC2 : 203A6563;
  BC3 : 00000020;
  BC4 : 20737542;
  BC5 : 656D6974;
  BC6 : 2074756F;
  BC7 : 746E6928;
  BC8 : 20203A29;
  BC9 : 20752520;
  BCA : 6C637963;
  BCB : 000A7365;
  BCC : 20737542;
  BCD : 656D6974;
  BCE : 2074756F;
  BCF : 74786528;
  BD0 : 20203A29;
  BD1 : 20752520;
  BD2 : 6C637963;
  BD3 : 000A7365;
  BD4 : 69726550;
  BD5 : 72656870;
  BD6 : 3A736C61;
  BD7 : 20202020;
  BD8 : 20202020;
  BD9 : 00000020;
  BDA : 20534643;
  BDB : 00000000;
  BDC : 4E494C43;
  BDD : 00002054;
  BDE : 20414D44;
  BDF : 00000000;
  BE0 : 4F495047;
  BE1 : 00000020;
  BE2 : 4D545047;
  BE3 : 00002052;
  BE4 : 4C4F454E;
  BE5 : 00204445;
  BE6 : 57454E4F;
  BE7 : 20455249;
  BE8 : 00000000;
  BE9 : 204D5750;
  BEA : 00000000;
  BEB : 20494453;
  BEC : 00000000;
  BED : 4E494C53;
  BEE : 0000204B;
  BEF : 20495053;
  BF0 : 00000000;
  BF1 : 49535953;
  BF2 : 204F464E;
  BF3 : 00000000;
  BF4 : 43415254;
  BF5 : 00205245;
  BF6 : 474E5254;
  BF7 : 00000020;
  BF8 : 20445754;
  BF9 : 00000000;
  BFA : 20495754;
  BFB : 00000000;
  BFC : 54524155;
  BFD : 00002030;
  BFE : 54524155;
  BFF : 00002031;
  C00 : 20544457;
  C01 : 00000000;
  C02 : 00000A0A;
  C03 : 20656854;
  C04 : 524F454E;
  C05 : 20323356;
  C06 : 43534952;
  C07 : 5020562D;
  C08 : 65636F72;
  C09 : 726F7373;
  C0A : 6967202C;
  C0B : 62756874;
  C0C : 6D6F632E;
  C0D : 6E74732F;
  C0E : 69746C6F;
  C0F : 6E2F676E;
  C10 : 76726F65;
  C11 : 430A3233;
  C12 : 7279706F;
  C13 : 74686769;
  C14 : 29632820;
  C15 : 4F454E20;
  C16 : 32335652;
  C17 : 6E6F6320;
  C18 : 62697274;
  C19 : 726F7475;
  C1A : 430A2E73;
  C1B : 7279706F;
  C1C : 74686769;
  C1D : 29632820;
  C1E : 32303220;
  C1F : 202D2030;
  C20 : 35323032;
  C21 : 7453202C;
  C22 : 61687065;
  C23 : 6F4E206E;
  C24 : 6E69746C;
  C25 : 41202E67;
  C26 : 72206C6C;
  C27 : 74686769;
  C28 : 65722073;
  C29 : 76726573;
  C2A : 0A2E6465;
  C2B : 58445053;
  C2C : 63694C2D;
  C2D : 65736E65;
  C2E : 6564492D;
  C2F : 6669746E;
  C30 : 3A726569;
  C31 : 44534220;
  C32 : 432D332D;
  C33 : 7375616C;
  C34 : 00000A65;
  C35 : 00000000;
  C36 : 00000000;
  C37 : 03000000;
  C38 : 60C7C630;
  C39 : 87F8FC7F;
  C3A : F87FC0C7;
  C3B : FFFC8303;
  C3C : 00C0F0CC;
  C3D : C0CCCC0C;
  C3E : C30F0CC0;
  C3F : D8CC000F;
  C40 : CC0C00C0;
  C41 : 0C01C0C0;
  C42 : 1F8C8303;
  C43 : F8C0CCCF;
  C44 : C0C0CFF8;
  C45 : 030FF806;
  C46 : C6CC1F8F;
  C47 : CC1800C0;
  C48 : 0C186180;
  C49 : 1F8C0303;
  C4A : 00C0C3CC;
  C4B : 330CCC0C;
  C4C : 030F0C60;
  C4D : C187000F;
  C4E : 8C06FC7F;
  C4F : F8FF0C07;
  C50 : FFFCC303;
  C51 : 00000000;
  C52 : 00000000;
  C53 : 03000000;
  C54 : 0000C630;
  C55 : 4453420A;
  C56 : 432D3320;
  C57 : 7375616C;
  C58 : 694C2065;
  C59 : 736E6563;
  C5A : 430A0A65;
  C5B : 7279706F;
  C5C : 74686769;
  C5D : 29632820;
  C5E : 4F454E20;
  C5F : 32335652;
  C60 : 6E6F6320;
  C61 : 62697274;
  C62 : 726F7475;
  C63 : 430A2E73;
  C64 : 7279706F;
  C65 : 74686769;
  C66 : 29632820;
  C67 : 32303220;
  C68 : 202D2030;
  C69 : 35323032;
  C6A : 7453202C;
  C6B : 61687065;
  C6C : 6F4E206E;
  C6D : 6E69746C;
  C6E : 41202E67;
  C6F : 72206C6C;
  C70 : 74686769;
  C71 : 65722073;
  C72 : 76726573;
  C73 : 0A2E6465;
  C74 : 6465520A;
  C75 : 72747369;
  C76 : 74756269;
  C77 : 206E6F69;
  C78 : 20646E61;
  C79 : 20657375;
  C7A : 73206E69;
  C7B : 6372756F;
  C7C : 6E612065;
  C7D : 69622064;
  C7E : 7972616E;
  C7F : 726F6620;
  C80 : 202C736D;
  C81 : 68746977;
  C82 : 20726F20;
  C83 : 68746977;
  C84 : 2074756F;
  C85 : 69646F6D;
  C86 : 61636966;
  C87 : 6E6F6974;
  C88 : 7261202C;
  C89 : 65700A65;
  C8A : 74696D72;
  C8B : 20646574;
  C8C : 766F7270;
  C8D : 64656469;
  C8E : 61687420;
  C8F : 68742074;
  C90 : 6F662065;
  C91 : 776F6C6C;
  C92 : 20676E69;
  C93 : 646E6F63;
  C94 : 6F697469;
  C95 : 6120736E;
  C96 : 6D206572;
  C97 : 0A3A7465;
  C98 : 202E310A;
  C99 : 69646552;
  C9A : 69727473;
  C9B : 69747562;
  C9C : 20736E6F;
  C9D : 7320666F;
  C9E : 6372756F;
  C9F : 6F632065;
  CA0 : 6D206564;
  CA1 : 20747375;
  CA2 : 61746572;
  CA3 : 74206E69;
  CA4 : 61206568;
  CA5 : 65766F62;
  CA6 : 706F6320;
  CA7 : 67697279;
  CA8 : 6E207468;
  CA9 : 6369746F;
  CAA : 74202C65;
  CAB : 20736968;
  CAC : 7473696C;
  CAD : 0A666F20;
  CAE : 63202020;
  CAF : 69646E6F;
  CB0 : 6E6F6974;
  CB1 : 6E612073;
  CB2 : 68742064;
  CB3 : 6F662065;
  CB4 : 776F6C6C;
  CB5 : 20676E69;
  CB6 : 63736964;
  CB7 : 6D69616C;
  CB8 : 0A2E7265;
  CB9 : 202E320A;
  CBA : 69646552;
  CBB : 69727473;
  CBC : 69747562;
  CBD : 20736E6F;
  CBE : 62206E69;
  CBF : 72616E69;
  CC0 : 6F662079;
  CC1 : 6D206D72;
  CC2 : 20747375;
  CC3 : 72706572;
  CC4 : 6375646F;
  CC5 : 68742065;
  CC6 : 62612065;
  CC7 : 2065766F;
  CC8 : 79706F63;
  CC9 : 68676972;
  CCA : 6F6E2074;
  CCB : 65636974;
  CCC : 6874202C;
  CCD : 6C207369;
  CCE : 20747369;
  CCF : 200A666F;
  CD0 : 6F632020;
  CD1 : 7469646E;
  CD2 : 736E6F69;
  CD3 : 646E6120;
  CD4 : 65687420;
  CD5 : 6C6F6620;
  CD6 : 69776F6C;
  CD7 : 6420676E;
  CD8 : 6C637369;
  CD9 : 656D6961;
  CDA : 6E692072;
  CDB : 65687420;
  CDC : 636F6420;
  CDD : 6E656D75;
  CDE : 69746174;
  CDF : 61206E6F;
  CE0 : 6F2F646E;
  CE1 : 746F2072;
  CE2 : 20726568;
  CE3 : 6574616D;
  CE4 : 6C616972;
  CE5 : 20200A73;
  CE6 : 6F727020;
  CE7 : 65646976;
  CE8 : 69772064;
  CE9 : 74206874;
  CEA : 64206568;
  CEB : 72747369;
  CEC : 74756269;
  CED : 2E6E6F69;
  CEE : 2E330A0A;
  CEF : 69654E20;
  CF0 : 72656874;
  CF1 : 65687420;
  CF2 : 6D616E20;
  CF3 : 666F2065;
  CF4 : 65687420;
  CF5 : 706F6320;
  CF6 : 67697279;
  CF7 : 68207468;
  CF8 : 65646C6F;
  CF9 : 6F6E2072;
  CFA : 68742072;
  CFB : 616E2065;
  CFC : 2073656D;
  CFD : 6920666F;
  CFE : 63207374;
  CFF : 72746E6F;
  D00 : 74756269;
  D01 : 2073726F;
  D02 : 2079616D;
  D03 : 75206562;
  D04 : 20646573;
  D05 : 200A6F74;
  D06 : 6E652020;
  D07 : 73726F64;
  D08 : 726F2065;
  D09 : 6F727020;
  D0A : 65746F6D;
  D0B : 6F727020;
  D0C : 74637564;
  D0D : 65642073;
  D0E : 65766972;
  D0F : 72662064;
  D10 : 74206D6F;
  D11 : 20736968;
  D12 : 74666F73;
  D13 : 65726177;
  D14 : 74697720;
  D15 : 74756F68;
  D16 : 65707320;
  D17 : 69666963;
  D18 : 72702063;
  D19 : 20726F69;
  D1A : 74697277;
  D1B : 0A6E6574;
  D1C : 70202020;
  D1D : 696D7265;
  D1E : 6F697373;
  D1F : 0A0A2E6E;
  D20 : 53494854;
  D21 : 464F5320;
  D22 : 52415754;
  D23 : 53492045;
  D24 : 4F525020;
  D25 : 45444956;
  D26 : 59422044;
  D27 : 45485420;
  D28 : 504F4320;
  D29 : 47495259;
  D2A : 48205448;
  D2B : 45444C4F;
  D2C : 41205352;
  D2D : 4320444E;
  D2E : 52544E4F;
  D2F : 54554249;
  D30 : 2053524F;
  D31 : 20534122;
  D32 : 20225349;
  D33 : 20444E41;
  D34 : 20594E41;
  D35 : 52505845;
  D36 : 0A535345;
  D37 : 4920524F;
  D38 : 494C504D;
  D39 : 57204445;
  D3A : 41525241;
  D3B : 4549544E;
  D3C : 49202C53;
  D3D : 554C434E;
  D3E : 474E4944;
  D3F : 5542202C;
  D40 : 4F4E2054;
  D41 : 494C2054;
  D42 : 4554494D;
  D43 : 4F542044;
  D44 : 4854202C;
  D45 : 4D492045;
  D46 : 45494C50;
  D47 : 41572044;
  D48 : 4E415252;
  D49 : 53454954;
  D4A : 0A464F20;
  D4B : 4352454D;
  D4C : 544E4148;
  D4D : 4C494241;
  D4E : 20595449;
  D4F : 20444E41;
  D50 : 4E544946;
  D51 : 20535345;
  D52 : 20524F46;
  D53 : 41502041;
  D54 : 43495452;
  D55 : 52414C55;
  D56 : 52555020;
  D57 : 45534F50;
  D58 : 45524120;
  D59 : 53494420;
  D5A : 49414C43;
  D5B : 2E44454D;
  D5C : 204E4920;
  D5D : 45204F4E;
  D5E : 544E4556;
  D5F : 41485320;
  D60 : 54204C4C;
  D61 : 430A4548;
  D62 : 5259504F;
  D63 : 54484749;
  D64 : 4C4F4820;
  D65 : 20524544;
  D66 : 4320524F;
  D67 : 52544E4F;
  D68 : 54554249;
  D69 : 2053524F;
  D6A : 4C204542;
  D6B : 4C424149;
  D6C : 4F462045;
  D6D : 4E412052;
  D6E : 49442059;
  D6F : 54434552;
  D70 : 4E49202C;
  D71 : 45524944;
  D72 : 202C5443;
  D73 : 49434E49;
  D74 : 544E4544;
  D75 : 202C4C41;
  D76 : 43455053;
  D77 : 2C4C4149;
  D78 : 4558450A;
  D79 : 414C504D;
  D7A : 202C5952;
  D7B : 4320524F;
  D7C : 45534E4F;
  D7D : 4E455551;
  D7E : 4C414954;
  D7F : 4D414420;
  D80 : 53454741;
  D81 : 4E492820;
  D82 : 44554C43;
  D83 : 2C474E49;
  D84 : 54554220;
  D85 : 544F4E20;
  D86 : 4D494C20;
  D87 : 44455449;
  D88 : 2C4F5420;
  D89 : 4F525020;
  D8A : 45525543;
  D8B : 544E454D;
  D8C : 20464F20;
  D8D : 53425553;
  D8E : 55544954;
  D8F : 470A4554;
  D90 : 53444F4F;
  D91 : 20524F20;
  D92 : 56524553;
  D93 : 53454349;
  D94 : 4F4C203B;
  D95 : 4F205353;
  D96 : 53552046;
  D97 : 44202C45;
  D98 : 2C415441;
  D99 : 20524F20;
  D9A : 464F5250;
  D9B : 3B535449;
  D9C : 20524F20;
  D9D : 49535542;
  D9E : 5353454E;
  D9F : 544E4920;
  DA0 : 55525245;
  DA1 : 4F495450;
  DA2 : 4820294E;
  DA3 : 5645574F;
  DA4 : 43205245;
  DA5 : 45535541;
  DA6 : 4E410A44;
  DA7 : 4E4F2044;
  DA8 : 594E4120;
  DA9 : 45485420;
  DAA : 2059524F;
  DAB : 4C20464F;
  DAC : 49424149;
  DAD : 5954494C;
  DAE : 4857202C;
  DAF : 45485445;
  DB0 : 4E492052;
  DB1 : 4E4F4320;
  DB2 : 43415254;
  DB3 : 53202C54;
  DB4 : 43495254;
  DB5 : 494C2054;
  DB6 : 4C494241;
  DB7 : 2C595449;
  DB8 : 20524F20;
  DB9 : 54524F54;
  DBA : 4E492820;
  DBB : 44554C43;
  DBC : 0A474E49;
  DBD : 4C47454E;
  DBE : 4E454749;
  DBF : 4F204543;
  DC0 : 544F2052;
  DC1 : 57524548;
  DC2 : 29455349;
  DC3 : 49524120;
  DC4 : 474E4953;
  DC5 : 204E4920;
  DC6 : 20594E41;
  DC7 : 20594157;
  DC8 : 2054554F;
  DC9 : 5420464F;
  DCA : 55204548;
  DCB : 4F204553;
  DCC : 48542046;
  DCD : 53205349;
  DCE : 5754464F;
  DCF : 2C455241;
  DD0 : 45564520;
  DD1 : 4649204E;
  DD2 : 56444120;
  DD3 : 44455349;
  DD4 : 20464F0A;
  DD5 : 20454854;
  DD6 : 53534F50;
  DD7 : 4C494249;
  DD8 : 20595449;
  DD9 : 5320464F;
  DDA : 20484355;
  DDB : 414D4144;
  DDC : 0A2E4547;
  DDD : 4450530A;
  DDE : 694C2D58;
  DDF : 736E6563;
  DE0 : 64492D65;
  DE1 : 69746E65;
  DE2 : 72656966;
  DE3 : 5342203A;
  DE4 : 2D332D44;
  DE5 : 75616C43;
  DE6 : 0A0A6573;
  DE7 : 00000000;
  DE8 : 4F454E3C;
  DE9 : 32335652;
  DEA : 4554522D;
  DEB : 0000203E;
  DEC : 7570635B;
  DED : 00007C31;
  DEE : 7570635B;
  DEF : 00007C30;
  DF0 : 00205D4D;
  DF1 : 00205D55;
  DF2 : 74736E49;
  DF3 : 74637572;
  DF4 : 206E6F69;
  DF5 : 65636361;
  DF6 : 66207373;
  DF7 : 746C7561;
  DF8 : 00000000;
  DF9 : 656C6C49;
  DFA : 206C6167;
  DFB : 74736E69;
  DFC : 74637572;
  DFD : 006E6F69;
  DFE : 74736E49;
  DFF : 74637572;
  E00 : 206E6F69;
  E01 : 72646461;
  E02 : 20737365;
  E03 : 6173696D;
  E04 : 6E67696C;
  E05 : 00006465;
  E06 : 69766E45;
  E07 : 6D6E6F72;
  E08 : 20746E65;
  E09 : 61657262;
  E0A : 696F706B;
  E0B : 0000746E;
  E0C : 64616F4C;
  E0D : 64646120;
  E0E : 73736572;
  E0F : 73696D20;
  E10 : 67696C61;
  E11 : 0064656E;
  E12 : 64616F4C;
  E13 : 63636120;
  E14 : 20737365;
  E15 : 6C756166;
  E16 : 00000074;
  E17 : 726F7453;
  E18 : 64612065;
  E19 : 73657264;
  E1A : 696D2073;
  E1B : 696C6173;
  E1C : 64656E67;
  E1D : 00000000;
  E1E : 726F7453;
  E1F : 63612065;
  E20 : 73736563;
  E21 : 75616620;
  E22 : 0000746C;
  E23 : 69766E45;
  E24 : 6D6E6F72;
  E25 : 20746E65;
  E26 : 6C6C6163;
  E27 : 6F726620;
  E28 : 2D55206D;
  E29 : 65646F6D;
  E2A : 00000000;
  E2B : 69766E45;
  E2C : 6D6E6F72;
  E2D : 20746E65;
  E2E : 6C6C6163;
  E2F : 6F726620;
  E30 : 2D4D206D;
  E31 : 65646F6D;
  E32 : 00000000;
  E33 : 6863614D;
  E34 : 20656E69;
  E35 : 74666F73;
  E36 : 65726177;
  E37 : 51524920;
  E38 : 00000000;
  E39 : 6863614D;
  E3A : 20656E69;
  E3B : 656D6974;
  E3C : 52492072;
  E3D : 00000051;
  E3E : 6863614D;
  E3F : 20656E69;
  E40 : 65747865;
  E41 : 6C616E72;
  E42 : 51524920;
  E43 : 00000000;
  E44 : 74736146;
  E45 : 51524920;
  E46 : 00000020;
  E47 : 6E6B6E55;
  E48 : 206E776F;
  E49 : 70617274;
  E4A : 75616320;
  E4B : 00206573;
  E4C : 50454D20;
  E4D : 00003D43;
  E4E : 49544D20;
  E4F : 3D54534E;
  E50 : 00000000;
  E51 : 56544D20;
  E52 : 003D4C41;
  E53 : 73694420;
  E54 : 696C6261;
  E55 : 4920676E;
  E56 : 73205152;
  E57 : 6372756F;
  E58 : 00000065;
  E59 : 41465B20;
  E5A : 214C4154;
  E5B : 6148205D;
  E5C : 6E69746C;
  E5D : 50432067;
  E5E : 2F3C2055;
  E5F : 524F454E;
  E60 : 2D323356;
  E61 : 3E455452;
  E62 : 0000000A;
  E63 : 4E2F3C20;
  E64 : 56524F45;
  E65 : 522D3233;
  E66 : 0A3E4554;
  E67 : 00000000;
  E68 : 33323130;
  E69 : 37363534;
  E6A : 42413938;
  E6B : 46454443;
  E6C : 00000000;
  E6D : 710024C4;
  E6E : 710024A4;
  E6F : 710024B4;
  E70 : 710024D4;
  E71 : 710024E4;
  E72 : 710024F4;
  E73 : 71002504;
  E74 : 71002514;
  E75 : 71002524;
  E76 : 71002590;
  E77 : 71002590;
  E78 : 71002534;
  E79 : 20202000;
  E7A : 20202020;
  E7B : 28282020;
  E7C : 20282828;
  E7D : 20202020;
  E7E : 20202020;
  E7F : 20202020;
  E80 : 20202020;
  E81 : 10108820;
  E82 : 10101010;
  E83 : 10101010;
  E84 : 10101010;
  E85 : 04040410;
  E86 : 04040404;
  E87 : 10040404;
  E88 : 10101010;
  E89 : 41411010;
  E8A : 41414141;
  E8B : 01010101;
  E8C : 01010101;
  E8D : 01010101;
  E8E : 01010101;
  E8F : 01010101;
  E90 : 10101010;
  E91 : 42421010;
  E92 : 42424242;
  E93 : 02020202;
  E94 : 02020202;
  E95 : 02020202;
  E96 : 02020202;
  E97 : 02020202;
  E98 : 10101010;
  E99 : 00000020;
  E9A : 00000000;
  E9B : 00000000;
  E9C : 00000000;
  E9D : 00000000;
  E9E : 00000000;
  E9F : 00000000;
  EA0 : 00000000;
  EA1 : 00000000;
  EA2 : 00000000;
  EA3 : 00000000;
  EA4 : 00000000;
  EA5 : 00000000;
  EA6 : 00000000;
  EA7 : 00000000;
  EA8 : 00000000;
  EA9 : 00000000;
  EAA : 00000000;
  EAB : 00000000;
  EAC : 00000000;
  EAD : 00000000;
  EAE : 00000000;
  EAF : 00000000;
  EB0 : 00000000;
  EB1 : 00000000;
  EB2 : 00000000;
  EB3 : 00000000;
  EB4 : 00000000;
  EB5 : 00000000;
  EB6 : 00000000;
  EB7 : 00000000;
  EB8 : 00000000;
  EB9 : 00000000;
END;
