WIDTH=32;
DEPTH=3908;

ADDRESS_RADIX=HEX;
DATA_RADIX=HEX;

CONTENT BEGIN
  00 : 0F004F97;
  01 : 000F8F93;
  02 : 0F004117;
  03 : FF810113;
  04 : 00C000EF;
  05 : 00050F93;
  06 : 0000006F;
  07 : FE010113;
  08 : 00112E23;
  09 : 00812C23;
  0A : 02010413;
  0B : FE042623;
  0C : FE042423;
  0D : FE042223;
  0E : 7C4020EF;
  0F : 00000613;
  10 : 0001C7B7;
  11 : 20078593;
  12 : FFF50537;
  13 : 118000EF;
  14 : 0C1020EF;
  15 : FEA42623;
  16 : 0DD010EF;
  17 : 0C1000EF;
  18 : 710037B7;
  19 : A5478593;
  1A : FFF50537;
  1B : 354000EF;
  1C : FEC42603;
  1D : 710037B7;
  1E : A6C78593;
  1F : FFF50537;
  20 : 694000EF;
  21 : 710037B7;
  22 : A9078593;
  23 : FFF50537;
  24 : 330000EF;
  25 : FFF50537;
  26 : 280000EF;
  27 : 00050793;
  28 : FEF401A3;
  29 : FE344783;
  2A : 00078613;
  2B : 710037B7;
  2C : AB878593;
  2D : FFF50537;
  2E : 65C000EF;
  2F : FC9FF06F;
  30 : FE010113;
  31 : 00812E23;
  32 : 02010413;
  33 : FEA42623;
  34 : FEC42783;
  35 : 00178713;
  36 : 710047B7;
  37 : C0C78793;
  38 : 00F707B3;
  39 : 0007C783;
  3A : 00078513;
  3B : 01C12403;
  3C : 02010113;
  3D : 00008067;
  3E : FE010113;
  3F : 00812E23;
  40 : 02010413;
  41 : FEA42623;
  42 : FEC42703;
  43 : FFF507B7;
  44 : 00F71E63;
  45 : FFFE07B7;
  46 : 0087A783;
  47 : 00078713;
  48 : 000207B7;
  49 : 00F777B3;
  4A : 02C0006F;
  4B : FEC42703;
  4C : FFF607B7;
  4D : 00F71E63;
  4E : FFFE07B7;
  4F : 0087A783;
  50 : 00078713;
  51 : 020007B7;
  52 : 00F777B3;
  53 : 0080006F;
  54 : 00000793;
  55 : 00078513;
  56 : 01C12403;
  57 : 02010113;
  58 : 00008067;
  59 : FD010113;
  5A : 02112623;
  5B : 02812423;
  5C : 03010413;
  5D : FCA42E23;
  5E : FCB42C23;
  5F : FCC42A23;
  60 : FE042623;
  61 : FE042423;
  62 : FDC42783;
  63 : 0007A023;
  64 : FFFE07B7;
  65 : 0007A783;
  66 : FEF42223;
  67 : FD842783;
  68 : 00179793;
  69 : 00078593;
  6A : FE442503;
  6B : 7BC020EF;
  6C : 00050793;
  6D : FEF42423;
  6E : 0440006F;
  6F : FEC42703;
  70 : 00200793;
  71 : 00F70863;
  72 : FEC42703;
  73 : 00400793;
  74 : 00F71A63;
  75 : FE842783;
  76 : 0037D793;
  77 : FEF42423;
  78 : 0100006F;
  79 : FE842783;
  7A : 0017D793;
  7B : FEF42423;
  7C : FEC42783;
  7D : 00178793;
  7E : FEF42623;
  7F : FE842703;
  80 : 3FE00793;
  81 : FAE7ECE3;
  82 : FE042023;
  83 : FE042783;
  84 : 0017E793;
  85 : FEF42023;
  86 : FEC42783;
  87 : 00379793;
  88 : 0187F793;
  89 : FE042703;
  8A : 00F767B3;
  8B : FEF42023;
  8C : FE842783;
  8D : FFF78793;
  8E : 00679713;
  8F : 000107B7;
  90 : FFF78793;
  91 : 00F777B3;
  92 : FE042703;
  93 : 00F767B3;
  94 : FEF42023;
  95 : FD442703;
  96 : 00F007B7;
  97 : 00F777B3;
  98 : FE042703;
  99 : 00F767B3;
  9A : FEF42023;
  9B : FDC42783;
  9C : FE042703;
  9D : 00E7A023;
  9E : 00000013;
  9F : 02C12083;
  A0 : 02812403;
  A1 : 03010113;
  A2 : 00008067;
  A3 : FE010113;
  A4 : 00112E23;
  A5 : 00812C23;
  A6 : 02010413;
  A7 : FEA42623;
  A8 : 00058793;
  A9 : FEF405A3;
  AA : 00000013;
  AB : FEC42783;
  AC : 0007A703;
  AD : 000807B7;
  AE : 00F777B3;
  AF : FE0788E3;
  B0 : FEB44783;
  B1 : 00078593;
  B2 : FEC42503;
  B3 : 018000EF;
  B4 : 00000013;
  B5 : 01C12083;
  B6 : 01812403;
  B7 : 02010113;
  B8 : 00008067;
  B9 : FE010113;
  BA : 00812E23;
  BB : 02010413;
  BC : FEA42623;
  BD : 00058793;
  BE : FEF405A3;
  BF : FEB44703;
  C0 : FEC42783;
  C1 : 00E7A223;
  C2 : 00000013;
  C3 : 01C12403;
  C4 : 02010113;
  C5 : 00008067;
  C6 : FE010113;
  C7 : 00112E23;
  C8 : 00812C23;
  C9 : 02010413;
  CA : FEA42623;
  CB : 00000013;
  CC : FEC42503;
  CD : 02C000EF;
  CE : 00050793;
  CF : FE078AE3;
  D0 : FEC42503;
  D1 : 050000EF;
  D2 : 00050793;
  D3 : 00078513;
  D4 : 01C12083;
  D5 : 01812403;
  D6 : 02010113;
  D7 : 00008067;
  D8 : FE010113;
  D9 : 00812E23;
  DA : 02010413;
  DB : FEA42623;
  DC : FEC42783;
  DD : 0007A783;
  DE : 00078713;
  DF : 000107B7;
  E0 : 00F777B3;
  E1 : 00078513;
  E2 : 01C12403;
  E3 : 02010113;
  E4 : 00008067;
  E5 : FE010113;
  E6 : 00812E23;
  E7 : 02010413;
  E8 : FEA42623;
  E9 : FEC42783;
  EA : 0047A783;
  EB : 0FF7F793;
  EC : 00078513;
  ED : 01C12403;
  EE : 02010113;
  EF : 00008067;
  F0 : FD010113;
  F1 : 02112623;
  F2 : 02812423;
  F3 : 03010413;
  F4 : FCA42E23;
  F5 : FCB42C23;
  F6 : FE0407A3;
  F7 : 02C0006F;
  F8 : FEF44703;
  F9 : 00A00793;
  FA : 00F71863;
  FB : 00D00593;
  FC : FDC42503;
  FD : E99FF0EF;
  FE : FEF44783;
  FF : 00078593;
  100 : FDC42503;
  101 : E89FF0EF;
  102 : FD842783;
  103 : 00178713;
  104 : FCE42C23;
  105 : 0007C783;
  106 : FEF407A3;
  107 : FEF44783;
  108 : FC0790E3;
  109 : 00000013;
  10A : 00000013;
  10B : 02C12083;
  10C : 02812403;
  10D : 03010113;
  10E : 00008067;
  10F : FB010113;
  110 : 04112623;
  111 : 04812423;
  112 : 05010413;
  113 : FAA42E23;
  114 : FAB42C23;
  115 : FAC42A23;
  116 : FE0403A3;
  117 : FE042623;
  118 : FE042423;
  119 : FE042423;
  11A : 0200006F;
  11B : FE842783;
  11C : FF078793;
  11D : 008787B3;
  11E : FC078823;
  11F : FE842783;
  120 : 00178793;
  121 : FEF42423;
  122 : FE842703;
  123 : 02300793;
  124 : FCE7FEE3;
  125 : 24C0006F;
  126 : FE744703;
  127 : 02500793;
  128 : 20F71C63;
  129 : FB842783;
  12A : 00178713;
  12B : FAE42C23;
  12C : 0007C783;
  12D : FEF40323;
  12E : FE644783;
  12F : 00078513;
  130 : C01FF0EF;
  131 : 00050793;
  132 : 0037F713;
  133 : 00100793;
  134 : 00F71863;
  135 : FE644783;
  136 : 02078793;
  137 : 0080006F;
  138 : FE644783;
  139 : FEF403A3;
  13A : FE744783;
  13B : 02500713;
  13C : 18E78863;
  13D : 02500713;
  13E : 18E7CE63;
  13F : 07800713;
  140 : 18F74A63;
  141 : 06300713;
  142 : 18E7C663;
  143 : F9D78793;
  144 : 01500713;
  145 : 18F76063;
  146 : 00279713;
  147 : 710037B7;
  148 : AC878793;
  149 : 00F707B3;
  14A : 0007A783;
  14B : 00078067;
  14C : FB442783;
  14D : 00478713;
  14E : FAE42A23;
  14F : 0007A783;
  150 : 00078593;
  151 : FBC42503;
  152 : E79FF0EF;
  153 : 1940006F;
  154 : FB442783;
  155 : 00478713;
  156 : FAE42A23;
  157 : 0007A783;
  158 : 0FF7F793;
  159 : 00078593;
  15A : FBC42503;
  15B : D21FF0EF;
  15C : 1700006F;
  15D : FB442783;
  15E : 00478713;
  15F : FAE42A23;
  160 : 0007A783;
  161 : FEF42623;
  162 : FEC42783;
  163 : 0007DE63;
  164 : FEC42783;
  165 : 40F007B3;
  166 : FEF42623;
  167 : 02D00593;
  168 : FBC42503;
  169 : CE9FF0EF;
  16A : FEC42703;
  16B : FC040793;
  16C : 00A00613;
  16D : 00070593;
  16E : 00078513;
  16F : 1C4000EF;
  170 : FC040793;
  171 : 00078593;
  172 : FBC42503;
  173 : DF5FF0EF;
  174 : 1100006F;
  175 : FB442783;
  176 : 00478713;
  177 : FAE42A23;
  178 : 0007A703;
  179 : FC040793;
  17A : 00A00613;
  17B : 00070593;
  17C : 00078513;
  17D : 18C000EF;
  17E : FC040793;
  17F : 00078593;
  180 : FBC42503;
  181 : DBDFF0EF;
  182 : 0D80006F;
  183 : FB442783;
  184 : 00478713;
  185 : FAE42A23;
  186 : 0007A703;
  187 : FC040793;
  188 : 01000613;
  189 : 00070593;
  18A : 00078513;
  18B : 154000EF;
  18C : FC040793;
  18D : 00078513;
  18E : 400020EF;
  18F : 00050713;
  190 : 00800793;
  191 : 40E787B3;
  192 : FEF42423;
  193 : 0100006F;
  194 : 03000593;
  195 : FBC42503;
  196 : C35FF0EF;
  197 : FE842783;
  198 : FFF78713;
  199 : FEE42423;
  19A : FE0794E3;
  19B : FC040793;
  19C : 00078593;
  19D : FBC42503;
  19E : D49FF0EF;
  19F : 0640006F;
  1A0 : FE744783;
  1A1 : 00078593;
  1A2 : FBC42503;
  1A3 : C01FF0EF;
  1A4 : 0500006F;
  1A5 : 02500593;
  1A6 : FBC42503;
  1A7 : BF1FF0EF;
  1A8 : FE744783;
  1A9 : 00078593;
  1AA : FBC42503;
  1AB : BE1FF0EF;
  1AC : 00000013;
  1AD : 02C0006F;
  1AE : FE744703;
  1AF : 00A00793;
  1B0 : 00F71863;
  1B1 : 00D00593;
  1B2 : FBC42503;
  1B3 : BC1FF0EF;
  1B4 : FE744783;
  1B5 : 00078593;
  1B6 : FBC42503;
  1B7 : BB1FF0EF;
  1B8 : FB842783;
  1B9 : 00178713;
  1BA : FAE42C23;
  1BB : 0007C783;
  1BC : FEF403A3;
  1BD : FE744783;
  1BE : DA0790E3;
  1BF : 00000013;
  1C0 : 00000013;
  1C1 : 04C12083;
  1C2 : 04812403;
  1C3 : 05010113;
  1C4 : 00008067;
  1C5 : FB010113;
  1C6 : 02112623;
  1C7 : 02812423;
  1C8 : 03010413;
  1C9 : FCA42E23;
  1CA : FCB42C23;
  1CB : 00C42423;
  1CC : 00D42623;
  1CD : 00E42823;
  1CE : 00F42A23;
  1CF : 01042C23;
  1D0 : 01142E23;
  1D1 : 02040793;
  1D2 : FCF42A23;
  1D3 : FD442783;
  1D4 : FE878793;
  1D5 : FEF42623;
  1D6 : FEC42783;
  1D7 : 00078613;
  1D8 : FD842583;
  1D9 : FDC42503;
  1DA : CD5FF0EF;
  1DB : 00000013;
  1DC : 02C12083;
  1DD : 02812403;
  1DE : 05010113;
  1DF : 00008067;
  1E0 : FA010113;
  1E1 : 04112E23;
  1E2 : 04812C23;
  1E3 : 06010413;
  1E4 : FAA42623;
  1E5 : FAB42423;
  1E6 : FAC42223;
  1E7 : 710037B7;
  1E8 : B2078793;
  1E9 : 0007A603;
  1EA : 0047A683;
  1EB : 0087A703;
  1EC : 00C7A783;
  1ED : FCC42C23;
  1EE : FCD42E23;
  1EF : FEE42023;
  1F0 : FEF42223;
  1F1 : FE042623;
  1F2 : FE042423;
  1F3 : FE042423;
  1F4 : 0200006F;
  1F5 : FE842783;
  1F6 : FF078793;
  1F7 : 008787B3;
  1F8 : FC078223;
  1F9 : FE842783;
  1FA : 00178793;
  1FB : FEF42423;
  1FC : FE842703;
  1FD : 02300793;
  1FE : FCE7FEE3;
  1FF : FA442703;
  200 : 00100793;
  201 : 00E7F863;
  202 : FA442703;
  203 : 01000793;
  204 : 00E7F863;
  205 : FAC42783;
  206 : 00078023;
  207 : 0F00006F;
  208 : FE042423;
  209 : 0200006F;
  20A : FE842783;
  20B : FF078793;
  20C : 008787B3;
  20D : FC078223;
  20E : FE842783;
  20F : 00178793;
  210 : FEF42423;
  211 : FE842703;
  212 : 02300793;
  213 : FCE7FEE3;
  214 : FB440793;
  215 : 02378793;
  216 : FEF42623;
  217 : FEC42783;
  218 : FFF78793;
  219 : FEF42623;
  21A : FA842783;
  21B : FA442583;
  21C : 00078513;
  21D : 13C020EF;
  21E : 00050793;
  21F : FF078793;
  220 : 008787B3;
  221 : FE87C703;
  222 : FEC42783;
  223 : 00E78023;
  224 : FA442583;
  225 : FA842503;
  226 : 0D0020EF;
  227 : 00050793;
  228 : FAF42423;
  229 : FA842783;
  22A : FA079AE3;
  22B : FE042423;
  22C : 0480006F;
  22D : FE842783;
  22E : FF078793;
  22F : 008787B3;
  230 : FC47C783;
  231 : 02078463;
  232 : FE842783;
  233 : FF078793;
  234 : 008787B3;
  235 : FC47C703;
  236 : FAC42783;
  237 : 00E78023;
  238 : FAC42783;
  239 : 00178793;
  23A : FAF42623;
  23B : FE842783;
  23C : 00178793;
  23D : FEF42423;
  23E : FE842703;
  23F : 02300793;
  240 : FAE7FAE3;
  241 : FAC42783;
  242 : 00078023;
  243 : 05C12083;
  244 : 05812403;
  245 : 06010113;
  246 : 00008067;
  247 : F6010113;
  248 : 08112E23;
  249 : 08812C23;
  24A : 0A010413;
  24B : FFF50537;
  24C : FC8FF0EF;
  24D : 00050793;
  24E : 00079463;
  24F : 6E90006F;
  250 : FE042423;
  251 : FE042623;
  252 : 710037B7;
  253 : B3078593;
  254 : FFF50537;
  255 : DC1FF0EF;
  256 : 710037B7;
  257 : B5C78593;
  258 : FFF50537;
  259 : DB1FF0EF;
  25A : FFFE07B7;
  25B : 0087A783;
  25C : 0007DC63;
  25D : 710037B7;
  25E : B7478593;
  25F : FFF50537;
  260 : D95FF0EF;
  261 : 0140006F;
  262 : 710037B7;
  263 : B7C78593;
  264 : FFF50537;
  265 : D81FF0EF;
  266 : FFFE07B7;
  267 : 0047A783;
  268 : 0107D793;
  269 : 00F7F793;
  26A : 00078613;
  26B : 710037B7;
  26C : B8078593;
  26D : FFF50537;
  26E : D5DFF0EF;
  26F : FFFE07B7;
  270 : 0007A783;
  271 : 00078613;
  272 : 710037B7;
  273 : B9C78593;
  274 : FFF50537;
  275 : D41FF0EF;
  276 : 710037B7;
  277 : BB878593;
  278 : FFF50537;
  279 : D31FF0EF;
  27A : FFFE07B7;
  27B : 0087A783;
  27C : 0107F793;
  27D : 04078E63;
  27E : 710037B7;
  27F : BD078593;
  280 : FFF50537;
  281 : D11FF0EF;
  282 : FFFE07B7;
  283 : 0087A703;
  284 : 000017B7;
  285 : 80078793;
  286 : 00F777B3;
  287 : 00078A63;
  288 : 710037B7;
  289 : BD878593;
  28A : FFF50537;
  28B : CE9FF0EF;
  28C : 6B0010EF;
  28D : 00050793;
  28E : 00078613;
  28F : 710037B7;
  290 : BEC78593;
  291 : FFF50537;
  292 : CCDFF0EF;
  293 : 0140006F;
  294 : 710037B7;
  295 : C0078593;
  296 : FFF50537;
  297 : CB9FF0EF;
  298 : F14027F3;
  299 : FAF42A23;
  29A : FB442603;
  29B : F11027F3;
  29C : FAF42C23;
  29D : FB842683;
  29E : F12027F3;
  29F : FAF42E23;
  2A0 : FBC42703;
  2A1 : F13027F3;
  2A2 : FCF42023;
  2A3 : FC042783;
  2A4 : 710035B7;
  2A5 : C0C58593;
  2A6 : FFF50537;
  2A7 : C79FF0EF;
  2A8 : F13027F3;
  2A9 : FCF42223;
  2AA : FC442783;
  2AB : 00078513;
  2AC : 589000EF;
  2AD : 710037B7;
  2AE : C7878593;
  2AF : FFF50537;
  2B0 : C55FF0EF;
  2B1 : 710037B7;
  2B2 : C7C78593;
  2B3 : FFF50537;
  2B4 : C45FF0EF;
  2B5 : 301027F3;
  2B6 : FCF42423;
  2B7 : FC842783;
  2B8 : FEF42423;
  2B9 : FE842783;
  2BA : 01E7D793;
  2BB : FEF42423;
  2BC : FE842703;
  2BD : 00100793;
  2BE : 00F71C63;
  2BF : 710037B7;
  2C0 : C9478593;
  2C1 : FFF50537;
  2C2 : C0DFF0EF;
  2C3 : 0140006F;
  2C4 : 710037B7;
  2C5 : CA078593;
  2C6 : FFF50537;
  2C7 : BF9FF0EF;
  2C8 : 710037B7;
  2C9 : CA878593;
  2CA : FFF50537;
  2CB : BE9FF0EF;
  2CC : 301027F3;
  2CD : FAF42823;
  2CE : FB042783;
  2CF : FEF42423;
  2D0 : FE042623;
  2D1 : 0540006F;
  2D2 : FEC42783;
  2D3 : 00100713;
  2D4 : 00F717B3;
  2D5 : 00078713;
  2D6 : FE842783;
  2D7 : 00F777B3;
  2D8 : 02078663;
  2D9 : FEC42783;
  2DA : 0FF7F793;
  2DB : 04178793;
  2DC : 0FF7F793;
  2DD : 00078593;
  2DE : FFF50537;
  2DF : F10FF0EF;
  2E0 : 02000593;
  2E1 : FFF50537;
  2E2 : F04FF0EF;
  2E3 : FEC42783;
  2E4 : 00178793;
  2E5 : FEF42623;
  2E6 : FEC42703;
  2E7 : 01900793;
  2E8 : FAE7D4E3;
  2E9 : FC0027F3;
  2EA : FAF42623;
  2EB : FAC42783;
  2EC : FEF42423;
  2ED : FE842703;
  2EE : 020007B7;
  2EF : 00F777B3;
  2F0 : 00078A63;
  2F1 : 710037B7;
  2F2 : CC078593;
  2F3 : FFF50537;
  2F4 : B45FF0EF;
  2F5 : FE842703;
  2F6 : 040007B7;
  2F7 : 00F777B3;
  2F8 : 00078A63;
  2F9 : 710037B7;
  2FA : CC878593;
  2FB : FFF50537;
  2FC : B25FF0EF;
  2FD : FE842703;
  2FE : 100007B7;
  2FF : 00F777B3;
  300 : 00078A63;
  301 : 710037B7;
  302 : CD078593;
  303 : FFF50537;
  304 : B05FF0EF;
  305 : FE842703;
  306 : 080007B7;
  307 : 00F777B3;
  308 : 00078A63;
  309 : 710037B7;
  30A : CD878593;
  30B : FFF50537;
  30C : AE5FF0EF;
  30D : FE842703;
  30E : 004007B7;
  30F : 00F777B3;
  310 : 00078A63;
  311 : 710037B7;
  312 : CE078593;
  313 : FFF50537;
  314 : AC5FF0EF;
  315 : FE842703;
  316 : 008007B7;
  317 : 00F777B3;
  318 : 00078A63;
  319 : 710037B7;
  31A : CE878593;
  31B : FFF50537;
  31C : AA5FF0EF;
  31D : FE842703;
  31E : 000107B7;
  31F : 00F777B3;
  320 : 00078A63;
  321 : 710037B7;
  322 : CF078593;
  323 : FFF50537;
  324 : A85FF0EF;
  325 : FE842703;
  326 : 000207B7;
  327 : 00F777B3;
  328 : 00078A63;
  329 : 710037B7;
  32A : CF878593;
  32B : FFF50537;
  32C : A65FF0EF;
  32D : FE842703;
  32E : 000017B7;
  32F : 00F777B3;
  330 : 00078A63;
  331 : 710037B7;
  332 : D0078593;
  333 : FFF50537;
  334 : A45FF0EF;
  335 : FE842703;
  336 : 010007B7;
  337 : 00F777B3;
  338 : 00078A63;
  339 : 710037B7;
  33A : D0878593;
  33B : FFF50537;
  33C : A25FF0EF;
  33D : FE842783;
  33E : 0207F793;
  33F : 00078A63;
  340 : 710037B7;
  341 : D1078593;
  342 : FFF50537;
  343 : A09FF0EF;
  344 : FE842703;
  345 : 200007B7;
  346 : 00F777B3;
  347 : 00078A63;
  348 : 710037B7;
  349 : D1878593;
  34A : FFF50537;
  34B : 9E9FF0EF;
  34C : FE842783;
  34D : 0807F793;
  34E : 00078A63;
  34F : 710037B7;
  350 : D2078593;
  351 : FFF50537;
  352 : 9CDFF0EF;
  353 : FE842783;
  354 : 0407F793;
  355 : 00078A63;
  356 : 710037B7;
  357 : D2878593;
  358 : FFF50537;
  359 : 9B1FF0EF;
  35A : FE842783;
  35B : 0017F793;
  35C : 00078A63;
  35D : 710037B7;
  35E : D3078593;
  35F : FFF50537;
  360 : 995FF0EF;
  361 : FE842783;
  362 : 0027F793;
  363 : 00078A63;
  364 : 710037B7;
  365 : D3878593;
  366 : FFF50537;
  367 : 979FF0EF;
  368 : FE842783;
  369 : 2007F793;
  36A : 00078A63;
  36B : 710037B7;
  36C : D4478593;
  36D : FFF50537;
  36E : 95DFF0EF;
  36F : FE842703;
  370 : 400007B7;
  371 : 00F777B3;
  372 : 00078A63;
  373 : 710037B7;
  374 : D4C78593;
  375 : FFF50537;
  376 : 93DFF0EF;
  377 : FE842703;
  378 : 000407B7;
  379 : 00F777B3;
  37A : 00078A63;
  37B : 710037B7;
  37C : D5478593;
  37D : FFF50537;
  37E : 91DFF0EF;
  37F : FE842703;
  380 : 000027B7;
  381 : 00F777B3;
  382 : 00078A63;
  383 : 710037B7;
  384 : D5C78593;
  385 : FFF50537;
  386 : 8FDFF0EF;
  387 : FE842703;
  388 : 000047B7;
  389 : 00F777B3;
  38A : 00078A63;
  38B : 710037B7;
  38C : D6478593;
  38D : FFF50537;
  38E : 8DDFF0EF;
  38F : FE842703;
  390 : 000087B7;
  391 : 00F777B3;
  392 : 00078A63;
  393 : 710037B7;
  394 : D6C78593;
  395 : FFF50537;
  396 : 8BDFF0EF;
  397 : FE842703;
  398 : 002007B7;
  399 : 00F777B3;
  39A : 00078A63;
  39B : 710037B7;
  39C : D7478593;
  39D : FFF50537;
  39E : 89DFF0EF;
  39F : FE842703;
  3A0 : 001007B7;
  3A1 : 00F777B3;
  3A2 : 00078A63;
  3A3 : 710037B7;
  3A4 : D7C78593;
  3A5 : FFF50537;
  3A6 : 87DFF0EF;
  3A7 : FE842703;
  3A8 : 000807B7;
  3A9 : 00F777B3;
  3AA : 00078A63;
  3AB : 710037B7;
  3AC : D8478593;
  3AD : FFF50537;
  3AE : 85DFF0EF;
  3AF : FE842783;
  3B0 : 0107F793;
  3B1 : 00078A63;
  3B2 : 710037B7;
  3B3 : D8C78593;
  3B4 : FFF50537;
  3B5 : 841FF0EF;
  3B6 : FE842783;
  3B7 : 0047F793;
  3B8 : 00078A63;
  3B9 : 710037B7;
  3BA : D9478593;
  3BB : FFF50537;
  3BC : 825FF0EF;
  3BD : FE842783;
  3BE : 4007F793;
  3BF : 00078A63;
  3C0 : 710037B7;
  3C1 : D9C78593;
  3C2 : FFF50537;
  3C3 : 809FF0EF;
  3C4 : FE842703;
  3C5 : 000017B7;
  3C6 : 80078793;
  3C7 : 00F777B3;
  3C8 : 00078A63;
  3C9 : 710037B7;
  3CA : DA478593;
  3CB : FFF50537;
  3CC : FE4FF0EF;
  3CD : FE842783;
  3CE : 0007DA63;
  3CF : 710037B7;
  3D0 : DAC78593;
  3D1 : FFF50537;
  3D2 : FCCFF0EF;
  3D3 : FE842783;
  3D4 : 1007F793;
  3D5 : 00078A63;
  3D6 : 710037B7;
  3D7 : DB878593;
  3D8 : FFF50537;
  3D9 : FB0FF0EF;
  3DA : FE842783;
  3DB : 0087F793;
  3DC : 00078A63;
  3DD : 710037B7;
  3DE : DC078593;
  3DF : FFF50537;
  3E0 : F94FF0EF;
  3E1 : 710037B7;
  3E2 : DC878593;
  3E3 : FFF50537;
  3E4 : F84FF0EF;
  3E5 : 2ED000EF;
  3E6 : FEA42223;
  3E7 : FE442783;
  3E8 : 14078263;
  3E9 : 46D000EF;
  3EA : 00050793;
  3EB : 00078693;
  3EC : FE442603;
  3ED : 710037B7;
  3EE : DE078593;
  3EF : FFF50537;
  3F0 : F54FF0EF;
  3F1 : FA042223;
  3F2 : FA442783;
  3F3 : FAF42023;
  3F4 : FA042783;
  3F5 : 3A079073;
  3F6 : 00000013;
  3F7 : 3A0027F3;
  3F8 : FAF42423;
  3F9 : FA842783;
  3FA : 0FF7F793;
  3FB : 00079A63;
  3FC : 710037B7;
  3FD : E0C78593;
  3FE : FFF50537;
  3FF : F18FF0EF;
  400 : 00800793;
  401 : F8F42C23;
  402 : F9842783;
  403 : F8F42A23;
  404 : F9442783;
  405 : 3A079073;
  406 : 00000013;
  407 : 3A0027F3;
  408 : F8F42E23;
  409 : F9C42783;
  40A : 0FF7F713;
  40B : 00800793;
  40C : 00F71A63;
  40D : 710037B7;
  40E : E1478593;
  40F : FFF50537;
  410 : ED4FF0EF;
  411 : 01000793;
  412 : F8F42623;
  413 : F8C42783;
  414 : F8F42423;
  415 : F8842783;
  416 : 3A079073;
  417 : 00000013;
  418 : 3A0027F3;
  419 : F8F42823;
  41A : F9042783;
  41B : 0FF7F713;
  41C : 01000793;
  41D : 00F71A63;
  41E : 710037B7;
  41F : E1C78593;
  420 : FFF50537;
  421 : E90FF0EF;
  422 : 01800793;
  423 : F8F42023;
  424 : F8042783;
  425 : F6F42E23;
  426 : F7C42783;
  427 : 3A079073;
  428 : 00000013;
  429 : 3A0027F3;
  42A : F8F42223;
  42B : F8442783;
  42C : 0FF7F713;
  42D : 01800793;
  42E : 00F71A63;
  42F : 710037B7;
  430 : E2478593;
  431 : FFF50537;
  432 : E4CFF0EF;
  433 : F6042C23;
  434 : F7842783;
  435 : F6F42A23;
  436 : F7442783;
  437 : 3A079073;
  438 : 0140006F;
  439 : 710037B7;
  43A : E2C78593;
  43B : FFF50537;
  43C : E24FF0EF;
  43D : 710037B7;
  43E : E3478593;
  43F : FFF50537;
  440 : E14FF0EF;
  441 : 3D9000EF;
  442 : FEA42023;
  443 : FE042783;
  444 : 02078463;
  445 : 6C9000EF;
  446 : 00050793;
  447 : 00078693;
  448 : FE042603;
  449 : 710037B7;
  44A : E4C78593;
  44B : FFF50537;
  44C : DE4FF0EF;
  44D : 0140006F;
  44E : 710037B7;
  44F : E2C78593;
  450 : FFF50537;
  451 : DD0FF0EF;
  452 : 710037B7;
  453 : E6C78593;
  454 : FFF50537;
  455 : DC0FF0EF;
  456 : FFFE07B7;
  457 : 0047A783;
  458 : 0147D793;
  459 : 0037F793;
  45A : FCF42E23;
  45B : FDC42703;
  45C : 00200793;
  45D : 04F70863;
  45E : FDC42703;
  45F : 00200793;
  460 : 04E7CC63;
  461 : FDC42783;
  462 : 00078A63;
  463 : FDC42703;
  464 : 00100793;
  465 : 00F70E63;
  466 : 0400006F;
  467 : 710037B7;
  468 : E8478593;
  469 : FFF50537;
  46A : D6CFF0EF;
  46B : 0440006F;
  46C : 710037B7;
  46D : EA078593;
  46E : FFF50537;
  46F : D58FF0EF;
  470 : 0300006F;
  471 : 710037B7;
  472 : EC078593;
  473 : FFF50537;
  474 : D44FF0EF;
  475 : 01C0006F;
  476 : FDC42603;
  477 : 710037B7;
  478 : EE478593;
  479 : FFF50537;
  47A : D2CFF0EF;
  47B : 00000013;
  47C : 710037B7;
  47D : EF478593;
  47E : FFF50537;
  47F : D18FF0EF;
  480 : FFFE07B7;
  481 : 0087A783;
  482 : 0047F793;
  483 : 04078463;
  484 : FFFE07B7;
  485 : 0047A783;
  486 : 0FF7F793;
  487 : F6F42823;
  488 : F7042783;
  489 : 00078A63;
  48A : F7042783;
  48B : 00100713;
  48C : 00F717B3;
  48D : 0080006F;
  48E : 00000793;
  48F : 00078613;
  490 : 710037B7;
  491 : F0C78593;
  492 : FFF50537;
  493 : CC8FF0EF;
  494 : 0140006F;
  495 : 710037B7;
  496 : F1878593;
  497 : FFF50537;
  498 : CB4FF0EF;
  499 : 710037B7;
  49A : F2078593;
  49B : FFF50537;
  49C : CA4FF0EF;
  49D : FFFE07B7;
  49E : 0087A783;
  49F : 0087F793;
  4A0 : 04078663;
  4A1 : FFFE07B7;
  4A2 : 0047A783;
  4A3 : 0087D793;
  4A4 : 0FF7F793;
  4A5 : F6F42623;
  4A6 : F6C42783;
  4A7 : 00078A63;
  4A8 : F6C42783;
  4A9 : 00100713;
  4AA : 00F717B3;
  4AB : 0080006F;
  4AC : 00000793;
  4AD : 00078613;
  4AE : 710037B7;
  4AF : F0C78593;
  4B0 : FFF50537;
  4B1 : C50FF0EF;
  4B2 : 0140006F;
  4B3 : 710037B7;
  4B4 : F1878593;
  4B5 : FFF50537;
  4B6 : C3CFF0EF;
  4B7 : 710037B7;
  4B8 : F3878593;
  4B9 : FFF50537;
  4BA : C2CFF0EF;
  4BB : FFFE07B7;
  4BC : 0087A783;
  4BD : 0207F793;
  4BE : 06078C63;
  4BF : FFFE07B7;
  4C0 : 00C7A783;
  4C1 : 00F7F793;
  4C2 : FCF42C23;
  4C3 : FD842783;
  4C4 : 00100713;
  4C5 : 00F717B3;
  4C6 : FCF42C23;
  4C7 : FFFE07B7;
  4C8 : 00C7A783;
  4C9 : 0047D793;
  4CA : 00F7F793;
  4CB : FCF42A23;
  4CC : FD442783;
  4CD : 00100713;
  4CE : 00F717B3;
  4CF : FCF42A23;
  4D0 : FD842583;
  4D1 : FD442503;
  4D2 : 5F4010EF;
  4D3 : 00050793;
  4D4 : FD842703;
  4D5 : FD442683;
  4D6 : 00078613;
  4D7 : 710037B7;
  4D8 : F5078593;
  4D9 : FFF50537;
  4DA : BACFF0EF;
  4DB : 0140006F;
  4DC : 710037B7;
  4DD : E2C78593;
  4DE : FFF50537;
  4DF : B98FF0EF;
  4E0 : FFFE07B7;
  4E1 : 00C7A703;
  4E2 : 000107B7;
  4E3 : 00F777B3;
  4E4 : 00078C63;
  4E5 : 710037B7;
  4E6 : F6478593;
  4E7 : FFF50537;
  4E8 : B74FF0EF;
  4E9 : 0140006F;
  4EA : 710037B7;
  4EB : F7878593;
  4EC : FFF50537;
  4ED : B60FF0EF;
  4EE : 710037B7;
  4EF : F7C78593;
  4F0 : FFF50537;
  4F1 : B50FF0EF;
  4F2 : FFFE07B7;
  4F3 : 0087A783;
  4F4 : 0407F793;
  4F5 : 06078E63;
  4F6 : FFFE07B7;
  4F7 : 00C7A783;
  4F8 : 0087D793;
  4F9 : 00F7F793;
  4FA : FCF42823;
  4FB : FD042783;
  4FC : 00100713;
  4FD : 00F717B3;
  4FE : FCF42823;
  4FF : FFFE07B7;
  500 : 00C7A783;
  501 : 00C7D793;
  502 : 00F7F793;
  503 : FCF42623;
  504 : FCC42783;
  505 : 00100713;
  506 : 00F717B3;
  507 : FCF42623;
  508 : FD042583;
  509 : FCC42503;
  50A : 514010EF;
  50B : 00050793;
  50C : FD042703;
  50D : FCC42683;
  50E : 00078613;
  50F : 710037B7;
  510 : F5078593;
  511 : FFF50537;
  512 : ACCFF0EF;
  513 : 0140006F;
  514 : 710037B7;
  515 : E2C78593;
  516 : FFF50537;
  517 : AB8FF0EF;
  518 : FFFE07B7;
  519 : 00C7A703;
  51A : 010007B7;
  51B : 00F777B3;
  51C : 00078C63;
  51D : 710037B7;
  51E : F6478593;
  51F : FFF50537;
  520 : A94FF0EF;
  521 : 0140006F;
  522 : 710037B7;
  523 : F7878593;
  524 : FFF50537;
  525 : A80FF0EF;
  526 : 710037B7;
  527 : F9478593;
  528 : FFF50537;
  529 : A70FF0EF;
  52A : FFFE07B7;
  52B : 0087A783;
  52C : FEF42423;
  52D : FE842783;
  52E : 0027F793;
  52F : 00078C63;
  530 : 710037B7;
  531 : BD078593;
  532 : FFF50537;
  533 : A48FF0EF;
  534 : 0140006F;
  535 : 710037B7;
  536 : E2C78593;
  537 : FFF50537;
  538 : A34FF0EF;
  539 : FFFE07B7;
  53A : 00C7A703;
  53B : 010107B7;
  53C : 00F777B3;
  53D : 00078C63;
  53E : 710037B7;
  53F : F6478593;
  540 : FFF50537;
  541 : A10FF0EF;
  542 : 0140006F;
  543 : 710037B7;
  544 : F7878593;
  545 : FFF50537;
  546 : 9FCFF0EF;
  547 : FFFE07B7;
  548 : 0047A783;
  549 : 01B7D793;
  54A : 01F7F793;
  54B : F6F42223;
  54C : F6442783;
  54D : 00078A63;
  54E : F6442783;
  54F : 00100713;
  550 : 00F717B3;
  551 : 0080006F;
  552 : 00000793;
  553 : 00078613;
  554 : 710037B7;
  555 : FAC78593;
  556 : FFF50537;
  557 : 9B8FF0EF;
  558 : FFFE07B7;
  559 : 0047A783;
  55A : 01B7D793;
  55B : 01F7F793;
  55C : F6F42423;
  55D : F6842783;
  55E : 00078A63;
  55F : F6842783;
  560 : 00100713;
  561 : 00F717B3;
  562 : 0080006F;
  563 : 00000793;
  564 : 00078613;
  565 : 710037B7;
  566 : FCC78593;
  567 : FFF50537;
  568 : 974FF0EF;
  569 : 710037B7;
  56A : FEC78593;
  56B : FFF50537;
  56C : 964FF0EF;
  56D : FFFE07B7;
  56E : 0087A783;
  56F : FEF42423;
  570 : FE842703;
  571 : 004007B7;
  572 : 00F777B3;
  573 : 00078A63;
  574 : 710037B7;
  575 : 00478593;
  576 : FFF50537;
  577 : 938FF0EF;
  578 : FE842703;
  579 : 000107B7;
  57A : 00F777B3;
  57B : 00078A63;
  57C : 710037B7;
  57D : 00C78593;
  57E : FFF50537;
  57F : 918FF0EF;
  580 : FE842703;
  581 : 000047B7;
  582 : 00F777B3;
  583 : 00078A63;
  584 : 710037B7;
  585 : 01478593;
  586 : FFF50537;
  587 : 8F8FF0EF;
  588 : FE842703;
  589 : 000087B7;
  58A : 00F777B3;
  58B : 00078A63;
  58C : 710037B7;
  58D : 01C78593;
  58E : FFF50537;
  58F : 8D8FF0EF;
  590 : FE842703;
  591 : 100007B7;
  592 : 00F777B3;
  593 : 00078A63;
  594 : 710037B7;
  595 : 02478593;
  596 : FFF50537;
  597 : 8B8FF0EF;
  598 : FE842703;
  599 : 040007B7;
  59A : 00F777B3;
  59B : 00078A63;
  59C : 710037B7;
  59D : 02C78593;
  59E : FFF50537;
  59F : 898FF0EF;
  5A0 : FE842703;
  5A1 : 400007B7;
  5A2 : 00F777B3;
  5A3 : 00078A63;
  5A4 : 710037B7;
  5A5 : 03478593;
  5A6 : FFF50537;
  5A7 : 878FF0EF;
  5A8 : FE842703;
  5A9 : 001007B7;
  5AA : 00F777B3;
  5AB : 00078A63;
  5AC : 710037B7;
  5AD : 04078593;
  5AE : FFF50537;
  5AF : 858FF0EF;
  5B0 : FE842703;
  5B1 : 010007B7;
  5B2 : 00F777B3;
  5B3 : 00078A63;
  5B4 : 710037B7;
  5B5 : 04878593;
  5B6 : FFF50537;
  5B7 : 838FF0EF;
  5B8 : FE842703;
  5B9 : 200007B7;
  5BA : 00F777B3;
  5BB : 00078A63;
  5BC : 710037B7;
  5BD : 05078593;
  5BE : FFF50537;
  5BF : 818FF0EF;
  5C0 : FE842703;
  5C1 : 000407B7;
  5C2 : 00F777B3;
  5C3 : 00078A63;
  5C4 : 710037B7;
  5C5 : 05878593;
  5C6 : FFF50537;
  5C7 : FF9FE0EF;
  5C8 : 710037B7;
  5C9 : 06078593;
  5CA : FFF50537;
  5CB : FE9FE0EF;
  5CC : FE842703;
  5CD : 080007B7;
  5CE : 00F777B3;
  5CF : 00078A63;
  5D0 : 710037B7;
  5D1 : 06C78593;
  5D2 : FFF50537;
  5D3 : FC9FE0EF;
  5D4 : FE842703;
  5D5 : 008007B7;
  5D6 : 00F777B3;
  5D7 : 00078A63;
  5D8 : 710037B7;
  5D9 : 07478593;
  5DA : FFF50537;
  5DB : FA9FE0EF;
  5DC : FE842703;
  5DD : 000027B7;
  5DE : 00F777B3;
  5DF : 00078A63;
  5E0 : 710037B7;
  5E1 : 07C78593;
  5E2 : FFF50537;
  5E3 : F89FE0EF;
  5E4 : FE842703;
  5E5 : 000807B7;
  5E6 : 00F777B3;
  5E7 : 00078A63;
  5E8 : 710037B7;
  5E9 : 08478593;
  5EA : FFF50537;
  5EB : F69FE0EF;
  5EC : FE842703;
  5ED : 000207B7;
  5EE : 00F777B3;
  5EF : 00078A63;
  5F0 : 710037B7;
  5F1 : 08C78593;
  5F2 : FFF50537;
  5F3 : F49FE0EF;
  5F4 : FE842703;
  5F5 : 020007B7;
  5F6 : 00F777B3;
  5F7 : 00078A63;
  5F8 : 710037B7;
  5F9 : 09478593;
  5FA : FFF50537;
  5FB : F29FE0EF;
  5FC : FE842703;
  5FD : 002007B7;
  5FE : 00F777B3;
  5FF : 00078A63;
  600 : 710037B7;
  601 : 09C78593;
  602 : FFF50537;
  603 : F09FE0EF;
  604 : 710037B7;
  605 : 0A478593;
  606 : FFF50537;
  607 : EF9FE0EF;
  608 : 0080006F;
  609 : 00000013;
  60A : 09C12083;
  60B : 09812403;
  60C : 0A010113;
  60D : 00008067;
  60E : FD010113;
  60F : 02112623;
  610 : 02812423;
  611 : 03010413;
  612 : FCA42E23;
  613 : FE042623;
  614 : FE0405A3;
  615 : FE040523;
  616 : FFF50537;
  617 : 89DFE0EF;
  618 : 00050793;
  619 : 0A078E63;
  61A : FE042623;
  61B : 0A80006F;
  61C : 00300713;
  61D : FEC42783;
  61E : 40F707B3;
  61F : 00379793;
  620 : FDC42703;
  621 : 00F757B3;
  622 : FEF405A3;
  623 : FE040523;
  624 : 01C0006F;
  625 : FEB44783;
  626 : FF078793;
  627 : FEF405A3;
  628 : FEA44783;
  629 : 00178793;
  62A : FEF40523;
  62B : FEB44703;
  62C : 00F00793;
  62D : FEE7E0E3;
  62E : FEA44783;
  62F : 00078E63;
  630 : FEA44783;
  631 : 03078793;
  632 : 0FF7F793;
  633 : 00078593;
  634 : FFF50537;
  635 : 9B9FE0EF;
  636 : FEB44783;
  637 : 03078793;
  638 : 0FF7F793;
  639 : 00078593;
  63A : FFF50537;
  63B : 9A1FE0EF;
  63C : FEC42703;
  63D : 00200793;
  63E : 00E7E863;
  63F : 02E00593;
  640 : FFF50537;
  641 : 989FE0EF;
  642 : FEC42783;
  643 : 00178793;
  644 : FEF42623;
  645 : FEC42703;
  646 : 00300793;
  647 : F4E7FAE3;
  648 : 00000013;
  649 : 02C12083;
  64A : 02812403;
  64B : 03010113;
  64C : 00008067;
  64D : F6010113;
  64E : 08112E23;
  64F : 08812C23;
  650 : 0A010413;
  651 : 710037B7;
  652 : 17078713;
  653 : F6040793;
  654 : 00070693;
  655 : 07E00713;
  656 : 00070613;
  657 : 00068593;
  658 : 00078513;
  659 : 0B0010EF;
  65A : FE042623;
  65B : FE042423;
  65C : FE042223;
  65D : FE041123;
  65E : FE0400A3;
  65F : FFF50537;
  660 : F78FE0EF;
  661 : 00050793;
  662 : 0E078263;
  663 : FE042423;
  664 : 0C00006F;
  665 : 710037B7;
  666 : F7878593;
  667 : FFF50537;
  668 : A21FE0EF;
  669 : FE042623;
  66A : 0900006F;
  66B : FE842703;
  66C : 00070793;
  66D : 00379793;
  66E : 40E787B3;
  66F : FEC42703;
  670 : 00E787B3;
  671 : 00179793;
  672 : FF078793;
  673 : 008787B3;
  674 : F707D783;
  675 : FEF41123;
  676 : FE042223;
  677 : 0440006F;
  678 : 02000793;
  679 : FEF400A3;
  67A : FE241783;
  67B : 0007D663;
  67C : 02300793;
  67D : FEF400A3;
  67E : FE144783;
  67F : 00078593;
  680 : FFF50537;
  681 : 889FE0EF;
  682 : FE245783;
  683 : 00179793;
  684 : FEF41123;
  685 : FE442783;
  686 : 00178793;
  687 : FEF42223;
  688 : FE442703;
  689 : 00F00793;
  68A : FAE7FCE3;
  68B : FEC42783;
  68C : 00178793;
  68D : FEF42623;
  68E : FEC42703;
  68F : 00600793;
  690 : F6E7F6E3;
  691 : FE842783;
  692 : 00178793;
  693 : FEF42423;
  694 : FE842703;
  695 : 00800793;
  696 : F2E7FEE3;
  697 : 710037B7;
  698 : F7878593;
  699 : FFF50537;
  69A : 959FE0EF;
  69B : 00000013;
  69C : 09C12083;
  69D : 09812403;
  69E : 0A010113;
  69F : 00008067;
  6A0 : FB010113;
  6A1 : 04812623;
  6A2 : 05010413;
  6A3 : FC0027F3;
  6A4 : FEF42223;
  6A5 : FE442783;
  6A6 : 1007F793;
  6A7 : 00079663;
  6A8 : 00000793;
  6A9 : 15C0006F;
  6AA : 010107B7;
  6AB : 10178793;
  6AC : FEF42623;
  6AD : FEC42783;
  6AE : FAF42C23;
  6AF : FB842783;
  6B0 : FAF42A23;
  6B1 : FB442783;
  6B2 : 3A079073;
  6B3 : 00000013;
  6B4 : FEC42783;
  6B5 : FCF42023;
  6B6 : FC042783;
  6B7 : FAF42E23;
  6B8 : FBC42783;
  6B9 : 3A179073;
  6BA : 00000013;
  6BB : FEC42783;
  6BC : FCF42423;
  6BD : FC842783;
  6BE : FCF42223;
  6BF : FC442783;
  6C0 : 3A279073;
  6C1 : 00000013;
  6C2 : FEC42783;
  6C3 : FCF42823;
  6C4 : FD042783;
  6C5 : FCF42623;
  6C6 : FCC42783;
  6C7 : 3A379073;
  6C8 : 00000013;
  6C9 : FA042823;
  6CA : 3A0027F3;
  6CB : FCF42A23;
  6CC : FD442703;
  6CD : FEC42783;
  6CE : 00F77733;
  6CF : FB042783;
  6D0 : 00F707B3;
  6D1 : FAF42823;
  6D2 : 3A1027F3;
  6D3 : FCF42C23;
  6D4 : FD842703;
  6D5 : FEC42783;
  6D6 : 00F77733;
  6D7 : FB042783;
  6D8 : 00F707B3;
  6D9 : FAF42823;
  6DA : 3A2027F3;
  6DB : FCF42E23;
  6DC : FDC42703;
  6DD : FEC42783;
  6DE : 00F77733;
  6DF : FB042783;
  6E0 : 00F707B3;
  6E1 : FAF42823;
  6E2 : 3A3027F3;
  6E3 : FEF42023;
  6E4 : FE042703;
  6E5 : FEC42783;
  6E6 : 00F77733;
  6E7 : FB042783;
  6E8 : 00F707B3;
  6E9 : FAF42823;
  6EA : FE042423;
  6EB : FB044783;
  6EC : 00078713;
  6ED : FE842783;
  6EE : 00E787B3;
  6EF : FEF42423;
  6F0 : FB144783;
  6F1 : 00078713;
  6F2 : FE842783;
  6F3 : 00E787B3;
  6F4 : FEF42423;
  6F5 : FB244783;
  6F6 : 00078713;
  6F7 : FE842783;
  6F8 : 00E787B3;
  6F9 : FEF42423;
  6FA : FB344783;
  6FB : 00078713;
  6FC : FE842783;
  6FD : 00E787B3;
  6FE : FEF42423;
  6FF : FE842783;
  700 : 00078513;
  701 : 04C12403;
  702 : 05010113;
  703 : 00008067;
  704 : FD010113;
  705 : 02812623;
  706 : 03010413;
  707 : FC0027F3;
  708 : FEF42223;
  709 : FE442783;
  70A : 1007F793;
  70B : 00079663;
  70C : 00000793;
  70D : 0980006F;
  70E : FC042A23;
  70F : FD442783;
  710 : FCF42823;
  711 : FD042783;
  712 : 3A079073;
  713 : 00000013;
  714 : FFF00793;
  715 : FCF42E23;
  716 : FDC42783;
  717 : FCF42C23;
  718 : FD842783;
  719 : 3B079073;
  71A : 00000013;
  71B : 3B0027F3;
  71C : FEF42023;
  71D : FE042783;
  71E : FEF42623;
  71F : FEC42783;
  720 : 00079663;
  721 : 00000793;
  722 : 0440006F;
  723 : 00200793;
  724 : FEF42423;
  725 : FEC42783;
  726 : 0017F793;
  727 : 02079063;
  728 : FEC42783;
  729 : 0017D793;
  72A : FEF42623;
  72B : FE842783;
  72C : 00178793;
  72D : FEF42423;
  72E : FDDFF06F;
  72F : 00000013;
  730 : FE842783;
  731 : 00100713;
  732 : 00F717B3;
  733 : 00078513;
  734 : 02C12403;
  735 : 03010113;
  736 : 00008067;
  737 : F4010113;
  738 : 0A812E23;
  739 : 0C010413;
  73A : FC0027F3;
  73B : FEF42423;
  73C : FE842783;
  73D : 2007F793;
  73E : 00079663;
  73F : 00000793;
  740 : 2CC0006F;
  741 : FF800793;
  742 : F4F42423;
  743 : F4842783;
  744 : F4F42223;
  745 : F4442783;
  746 : 3207A073;
  747 : 00000013;
  748 : 00100793;
  749 : F4F42823;
  74A : F5042783;
  74B : F4F42623;
  74C : F4C42783;
  74D : B0379073;
  74E : 00000013;
  74F : 00100793;
  750 : F4F42C23;
  751 : F5842783;
  752 : F4F42A23;
  753 : F5442783;
  754 : B0479073;
  755 : 00000013;
  756 : 00100793;
  757 : F6F42023;
  758 : F6042783;
  759 : F4F42E23;
  75A : F5C42783;
  75B : B0579073;
  75C : 00000013;
  75D : 00100793;
  75E : F6F42423;
  75F : F6842783;
  760 : F6F42223;
  761 : F6442783;
  762 : B0679073;
  763 : 00000013;
  764 : 00100793;
  765 : F6F42823;
  766 : F7042783;
  767 : F6F42623;
  768 : F6C42783;
  769 : B0779073;
  76A : 00000013;
  76B : 00100793;
  76C : F6F42C23;
  76D : F7842783;
  76E : F6F42A23;
  76F : F7442783;
  770 : B0879073;
  771 : 00000013;
  772 : 00100793;
  773 : F8F42023;
  774 : F8042783;
  775 : F6F42E23;
  776 : F7C42783;
  777 : B0979073;
  778 : 00000013;
  779 : 00100793;
  77A : F8F42423;
  77B : F8842783;
  77C : F8F42223;
  77D : F8442783;
  77E : B0A79073;
  77F : 00000013;
  780 : 00100793;
  781 : F8F42823;
  782 : F9042783;
  783 : F8F42623;
  784 : F8C42783;
  785 : B0B79073;
  786 : 00000013;
  787 : 00100793;
  788 : F8F42C23;
  789 : F9842783;
  78A : F8F42A23;
  78B : F9442783;
  78C : B0C79073;
  78D : 00000013;
  78E : 00100793;
  78F : FAF42023;
  790 : FA042783;
  791 : F8F42E23;
  792 : F9C42783;
  793 : B0D79073;
  794 : 00000013;
  795 : 00100793;
  796 : FAF42423;
  797 : FA842783;
  798 : FAF42223;
  799 : FA442783;
  79A : B0E79073;
  79B : 00000013;
  79C : 00100793;
  79D : FAF42823;
  79E : FB042783;
  79F : FAF42623;
  7A0 : FAC42783;
  7A1 : B0F79073;
  7A2 : 00000013;
  7A3 : FE042623;
  7A4 : B03027F3;
  7A5 : FAF42A23;
  7A6 : FB442783;
  7A7 : FEC42703;
  7A8 : 00F707B3;
  7A9 : FEF42623;
  7AA : B04027F3;
  7AB : FAF42C23;
  7AC : FB842783;
  7AD : FEC42703;
  7AE : 00F707B3;
  7AF : FEF42623;
  7B0 : B05027F3;
  7B1 : FAF42E23;
  7B2 : FBC42783;
  7B3 : FEC42703;
  7B4 : 00F707B3;
  7B5 : FEF42623;
  7B6 : B06027F3;
  7B7 : FCF42023;
  7B8 : FC042783;
  7B9 : FEC42703;
  7BA : 00F707B3;
  7BB : FEF42623;
  7BC : B07027F3;
  7BD : FCF42223;
  7BE : FC442783;
  7BF : FEC42703;
  7C0 : 00F707B3;
  7C1 : FEF42623;
  7C2 : B08027F3;
  7C3 : FCF42423;
  7C4 : FC842783;
  7C5 : FEC42703;
  7C6 : 00F707B3;
  7C7 : FEF42623;
  7C8 : B09027F3;
  7C9 : FCF42623;
  7CA : FCC42783;
  7CB : FEC42703;
  7CC : 00F707B3;
  7CD : FEF42623;
  7CE : B0A027F3;
  7CF : FCF42823;
  7D0 : FD042783;
  7D1 : FEC42703;
  7D2 : 00F707B3;
  7D3 : FEF42623;
  7D4 : B0B027F3;
  7D5 : FCF42A23;
  7D6 : FD442783;
  7D7 : FEC42703;
  7D8 : 00F707B3;
  7D9 : FEF42623;
  7DA : B0C027F3;
  7DB : FCF42C23;
  7DC : FD842783;
  7DD : FEC42703;
  7DE : 00F707B3;
  7DF : FEF42623;
  7E0 : B0D027F3;
  7E1 : FCF42E23;
  7E2 : FDC42783;
  7E3 : FEC42703;
  7E4 : 00F707B3;
  7E5 : FEF42623;
  7E6 : B0E027F3;
  7E7 : FEF42023;
  7E8 : FE042783;
  7E9 : FEC42703;
  7EA : 00F707B3;
  7EB : FEF42623;
  7EC : B0F027F3;
  7ED : FEF42223;
  7EE : FE442783;
  7EF : FEC42703;
  7F0 : 00F707B3;
  7F1 : FEF42623;
  7F2 : FEC42783;
  7F3 : 00078513;
  7F4 : 0BC12403;
  7F5 : 0C010113;
  7F6 : 00008067;
  7F7 : FC010113;
  7F8 : 02812E23;
  7F9 : 04010413;
  7FA : FE042623;
  7FB : FE042423;
  7FC : FC0027F3;
  7FD : FEF42223;
  7FE : FE442783;
  7FF : 2007F793;
  800 : 00079663;
  801 : 00000793;
  802 : 0C80006F;
  803 : 00800793;
  804 : FCF42623;
  805 : FCC42783;
  806 : FCF42423;
  807 : FC842783;
  808 : 3207A073;
  809 : 00000013;
  80A : FFF00793;
  80B : FCF42A23;
  80C : FD442783;
  80D : FCF42823;
  80E : FD042783;
  80F : B0379073;
  810 : 00000013;
  811 : FFF00793;
  812 : FCF42E23;
  813 : FDC42783;
  814 : FCF42C23;
  815 : FD842783;
  816 : B8379073;
  817 : 00000013;
  818 : FE042423;
  819 : B03027F3;
  81A : FEF42023;
  81B : FE042783;
  81C : FEF42623;
  81D : 01C0006F;
  81E : FE842783;
  81F : 00178793;
  820 : FEF42423;
  821 : FEC42783;
  822 : 0017D793;
  823 : FEF42623;
  824 : FEC42783;
  825 : FE0792E3;
  826 : B83027F3;
  827 : FCF42223;
  828 : FC442783;
  829 : FEF42623;
  82A : 01C0006F;
  82B : FE842783;
  82C : 00178793;
  82D : FEF42423;
  82E : FEC42783;
  82F : 0017D793;
  830 : FEF42623;
  831 : FEC42783;
  832 : FE0792E3;
  833 : FE842783;
  834 : 00078513;
  835 : 03C12403;
  836 : 04010113;
  837 : 00008067;
  838 : FD010113;
  839 : 02812623;
  83A : 03010413;
  83B : FE042623;
  83C : FE042423;
  83D : FC0027F3;
  83E : FEF42223;
  83F : FE442703;
  840 : 000017B7;
  841 : 80078793;
  842 : 00F777B3;
  843 : 00079663;
  844 : 00000793;
  845 : 0740006F;
  846 : FE842783;
  847 : FCF42E23;
  848 : FDC42783;
  849 : FCF42C23;
  84A : FD842783;
  84B : 7A079073;
  84C : 00000013;
  84D : 7A0027F3;
  84E : FEF42023;
  84F : FE042783;
  850 : FE842703;
  851 : 04F71063;
  852 : 7A4027F3;
  853 : FCF42A23;
  854 : FD442703;
  855 : 000107B7;
  856 : FFF78793;
  857 : 00F77733;
  858 : 00100793;
  859 : 02F70063;
  85A : FEC42783;
  85B : 00178793;
  85C : FEF42623;
  85D : FE842783;
  85E : 00178793;
  85F : FEF42423;
  860 : F99FF06F;
  861 : FEC42783;
  862 : 00078513;
  863 : 02C12403;
  864 : 03010113;
  865 : 00008067;
  866 : FE010113;
  867 : 00112E23;
  868 : 00812C23;
  869 : 02010413;
  86A : FEA42623;
  86B : FFF50537;
  86C : F49FD0EF;
  86D : 00050793;
  86E : 00078863;
  86F : FEC42583;
  870 : FFF50537;
  871 : 9FCFE0EF;
  872 : 00000013;
  873 : 01C12083;
  874 : 01812403;
  875 : 02010113;
  876 : 00008067;
  877 : FC010113;
  878 : 02112E23;
  879 : 02812C23;
  87A : 04010413;
  87B : FCA42623;
  87C : FE042623;
  87D : 710047B7;
  87E : 83C78793;
  87F : 0007A583;
  880 : 0047A603;
  881 : 0087A683;
  882 : 00C7A703;
  883 : FCB42C23;
  884 : FCC42E23;
  885 : FED42023;
  886 : FEE42223;
  887 : 0107C783;
  888 : FEF40423;
  889 : FFF50537;
  88A : ED1FD0EF;
  88B : 00050793;
  88C : 06078863;
  88D : 03000593;
  88E : FFF50537;
  88F : 850FE0EF;
  890 : 07800593;
  891 : FFF50537;
  892 : 844FE0EF;
  893 : FE042623;
  894 : 0440006F;
  895 : 00700713;
  896 : FEC42783;
  897 : 40F707B3;
  898 : 00279793;
  899 : FCC42703;
  89A : 00F757B3;
  89B : 00F7F793;
  89C : FF078793;
  89D : 008787B3;
  89E : FE87C783;
  89F : 00078593;
  8A0 : FFF50537;
  8A1 : 808FE0EF;
  8A2 : FEC42783;
  8A3 : 00178793;
  8A4 : FEF42623;
  8A5 : FEC42703;
  8A6 : 00700793;
  8A7 : FAE7DCE3;
  8A8 : 00000013;
  8A9 : 03C12083;
  8AA : 03812403;
  8AB : 04010113;
  8AC : 00008067;
  8AD : FC010113;
  8AE : 02112E23;
  8AF : 02812C23;
  8B0 : 04010413;
  8B1 : 710047B7;
  8B2 : 85078513;
  8B3 : ECDFF0EF;
  8B4 : F14027F3;
  8B5 : FEF42223;
  8B6 : FE442783;
  8B7 : 0017F793;
  8B8 : 00078A63;
  8B9 : 710047B7;
  8BA : 86C78513;
  8BB : EADFF0EF;
  8BC : 0100006F;
  8BD : 710047B7;
  8BE : 87478513;
  8BF : E9DFF0EF;
  8C0 : 300027F3;
  8C1 : FEF42023;
  8C2 : FE042703;
  8C3 : 000027B7;
  8C4 : 80078793;
  8C5 : 00F777B3;
  8C6 : 00078A63;
  8C7 : 710047B7;
  8C8 : 87C78513;
  8C9 : E75FF0EF;
  8CA : 0100006F;
  8CB : 710047B7;
  8CC : 88078513;
  8CD : E65FF0EF;
  8CE : 342027F3;
  8CF : FCF42E23;
  8D0 : FDC42783;
  8D1 : FEF42423;
  8D2 : FE042623;
  8D3 : FE842703;
  8D4 : 00B00793;
  8D5 : 06E7E063;
  8D6 : 0340006F;
  8D7 : FE842703;
  8D8 : 800007B7;
  8D9 : FFD78793;
  8DA : 00F707B3;
  8DB : 01C00713;
  8DC : 24F76463;
  8DD : 00279713;
  8DE : 710047B7;
  8DF : B6878793;
  8E0 : 00F707B3;
  8E1 : 0007A783;
  8E2 : 00078067;
  8E3 : FE842703;
  8E4 : 00B00793;
  8E5 : 22E7E263;
  8E6 : FE842783;
  8E7 : 00279713;
  8E8 : 710047B7;
  8E9 : BDC78793;
  8EA : 00F707B3;
  8EB : 0007A783;
  8EC : 00078067;
  8ED : FE842703;
  8EE : 800007B7;
  8EF : 01F78793;
  8F0 : 1EE7EC63;
  8F1 : FE842703;
  8F2 : 800007B7;
  8F3 : 00378793;
  8F4 : F8F776E3;
  8F5 : 1E40006F;
  8F6 : 710047B7;
  8F7 : 88478513;
  8F8 : DB9FF0EF;
  8F9 : 00100793;
  8FA : FEF42623;
  8FB : 1EC0006F;
  8FC : 710047B7;
  8FD : 8A078513;
  8FE : DA1FF0EF;
  8FF : 1DC0006F;
  900 : 710047B7;
  901 : 8B478513;
  902 : D91FF0EF;
  903 : 00100793;
  904 : FEF42623;
  905 : 1C40006F;
  906 : 710047B7;
  907 : 8D478513;
  908 : D79FF0EF;
  909 : 1B40006F;
  90A : 710047B7;
  90B : 8EC78513;
  90C : D69FF0EF;
  90D : 1A40006F;
  90E : 710047B7;
  90F : 90478513;
  910 : D59FF0EF;
  911 : 1940006F;
  912 : 710047B7;
  913 : 91878513;
  914 : D49FF0EF;
  915 : 1840006F;
  916 : 710047B7;
  917 : 93478513;
  918 : D39FF0EF;
  919 : 1740006F;
  91A : 710047B7;
  91B : 94878513;
  91C : D29FF0EF;
  91D : 1640006F;
  91E : 710047B7;
  91F : 96878513;
  920 : D19FF0EF;
  921 : 1540006F;
  922 : 710047B7;
  923 : 98878513;
  924 : D09FF0EF;
  925 : 1440006F;
  926 : 710047B7;
  927 : 9A078513;
  928 : CF9FF0EF;
  929 : 1340006F;
  92A : 710047B7;
  92B : 9B478513;
  92C : CE9FF0EF;
  92D : 1240006F;
  92E : 710047B7;
  92F : 9CC78513;
  930 : CD9FF0EF;
  931 : 1140006F;
  932 : 710047B7;
  933 : 9DC78513;
  934 : CC9FF0EF;
  935 : 1040006F;
  936 : 710047B7;
  937 : 9EC78513;
  938 : CB9FF0EF;
  939 : 0F40006F;
  93A : 710047B7;
  93B : 9FC78513;
  93C : CA9FF0EF;
  93D : 0E40006F;
  93E : 710047B7;
  93F : A0C78513;
  940 : C99FF0EF;
  941 : 0D40006F;
  942 : 710047B7;
  943 : A2078513;
  944 : C89FF0EF;
  945 : 0C40006F;
  946 : 710047B7;
  947 : A3078513;
  948 : C79FF0EF;
  949 : 0B40006F;
  94A : 710047B7;
  94B : A4078513;
  94C : C69FF0EF;
  94D : 0A40006F;
  94E : 710047B7;
  94F : A5078513;
  950 : C59FF0EF;
  951 : 0940006F;
  952 : 710047B7;
  953 : A6078513;
  954 : C49FF0EF;
  955 : 0840006F;
  956 : 710047B7;
  957 : A7078513;
  958 : C39FF0EF;
  959 : 0740006F;
  95A : 710047B7;
  95B : A8078513;
  95C : C29FF0EF;
  95D : 0640006F;
  95E : 710047B7;
  95F : A9078513;
  960 : C19FF0EF;
  961 : 0540006F;
  962 : 710047B7;
  963 : AA078513;
  964 : C09FF0EF;
  965 : 0440006F;
  966 : 710047B7;
  967 : AB478513;
  968 : BF9FF0EF;
  969 : 0340006F;
  96A : 710047B7;
  96B : AC478513;
  96C : BE9FF0EF;
  96D : 0240006F;
  96E : 710047B7;
  96F : AD478513;
  970 : BD9FF0EF;
  971 : FE842503;
  972 : C15FF0EF;
  973 : 00100793;
  974 : FEF42623;
  975 : 00000013;
  976 : 710047B7;
  977 : AE878513;
  978 : BB9FF0EF;
  979 : 341027F3;
  97A : FCF42823;
  97B : FD042783;
  97C : 00078513;
  97D : BE9FF0EF;
  97E : 710047B7;
  97F : AF078513;
  980 : B99FF0EF;
  981 : 34A027F3;
  982 : FCF42A23;
  983 : FD442783;
  984 : 00078513;
  985 : BC9FF0EF;
  986 : 710047B7;
  987 : AFC78513;
  988 : B79FF0EF;
  989 : 343027F3;
  98A : FCF42C23;
  98B : FD842783;
  98C : 00078513;
  98D : BA9FF0EF;
  98E : FE842783;
  98F : 0207DC63;
  990 : 710047B7;
  991 : B0478513;
  992 : B51FF0EF;
  993 : FE842783;
  994 : 01F7F793;
  995 : 00100713;
  996 : 00F717B3;
  997 : FCF42623;
  998 : FCC42783;
  999 : FCF42423;
  99A : FC842783;
  99B : 3047B073;
  99C : 00000013;
  99D : FEC42783;
  99E : 00078C63;
  99F : 710047B7;
  9A0 : B1C78513;
  9A1 : B15FF0EF;
  9A2 : 10500073;
  9A3 : FFDFF06F;
  9A4 : 710047B7;
  9A5 : B4C78513;
  9A6 : B01FF0EF;
  9A7 : 00000013;
  9A8 : 03C12083;
  9A9 : 03812403;
  9AA : 04010113;
  9AB : 00008067;
  9AC : 0FF0000F;
  9AD : 34011073;
  9AE : F8010113;
  9AF : 00112223;
  9B0 : 340110F3;
  9B1 : 00112423;
  9B2 : 00312623;
  9B3 : 00412823;
  9B4 : 00512A23;
  9B5 : 00612C23;
  9B6 : 00712E23;
  9B7 : 02812023;
  9B8 : 02912223;
  9B9 : 02A12423;
  9BA : 02B12623;
  9BB : 02C12823;
  9BC : 02D12A23;
  9BD : 02E12C23;
  9BE : 02F12E23;
  9BF : 05012023;
  9C0 : 05112223;
  9C1 : 05212423;
  9C2 : 05312623;
  9C3 : 05412823;
  9C4 : 05512A23;
  9C5 : 05612C23;
  9C6 : 05712E23;
  9C7 : 07812023;
  9C8 : 07912223;
  9C9 : 07A12423;
  9CA : 07B12623;
  9CB : 07C12823;
  9CC : 07D12A23;
  9CD : 07E12C23;
  9CE : 07F12E23;
  9CF : 34202573;
  9D0 : 01855593;
  9D1 : 01F57613;
  9D2 : 00261613;
  9D3 : 00B60633;
  9D4 : 0EFFE517;
  9D5 : 8B050513;
  9D6 : 00A60633;
  9D7 : 00062603;
  9D8 : 000600E7;
  9D9 : 34202573;
  9DA : 00054863;
  9DB : 34102573;
  9DC : 00450513;
  9DD : 34151073;
  9DE : 00412083;
  9DF : 00C12183;
  9E0 : 01012203;
  9E1 : 01412283;
  9E2 : 01812303;
  9E3 : 01C12383;
  9E4 : 02012403;
  9E5 : 02412483;
  9E6 : 02812503;
  9E7 : 02C12583;
  9E8 : 03012603;
  9E9 : 03412683;
  9EA : 03812703;
  9EB : 03C12783;
  9EC : 04012803;
  9ED : 04412883;
  9EE : 04812903;
  9EF : 04C12983;
  9F0 : 05012A03;
  9F1 : 05412A83;
  9F2 : 05812B03;
  9F3 : 05C12B83;
  9F4 : 06012C03;
  9F5 : 06412C83;
  9F6 : 06812D03;
  9F7 : 06C12D83;
  9F8 : 07012E03;
  9F9 : 07412E83;
  9FA : 07812F03;
  9FB : 07C12F83;
  9FC : 00812103;
  9FD : 30200073;
  9FE : 00000013;
  9FF : FD010113;
  A00 : 02812623;
  A01 : 03010413;
  A02 : 000027B7;
  A03 : 80078793;
  A04 : FCF42A23;
  A05 : FD442783;
  A06 : FCF42823;
  A07 : FD042783;
  A08 : 30079073;
  A09 : 00000013;
  A0A : 710027B7;
  A0B : 6B078793;
  A0C : FFC7F793;
  A0D : FCF42E23;
  A0E : FDC42783;
  A0F : FCF42C23;
  A10 : FD842783;
  A11 : 30579073;
  A12 : 00000013;
  A13 : FE042223;
  A14 : FE442783;
  A15 : FEF42023;
  A16 : FE042783;
  A17 : 30479073;
  A18 : 00000013;
  A19 : F14027F3;
  A1A : FEF42423;
  A1B : FE842783;
  A1C : 06079463;
  A1D : FE042623;
  A1E : 0540006F;
  A1F : 710027B7;
  A20 : 2B478713;
  A21 : 800007B7;
  A22 : 00078693;
  A23 : FEC42783;
  A24 : 00279793;
  A25 : 00F687B3;
  A26 : 00E7A023;
  A27 : 710027B7;
  A28 : 2B478713;
  A29 : 800007B7;
  A2A : 00078693;
  A2B : FEC42783;
  A2C : 02078793;
  A2D : 00279793;
  A2E : 00F687B3;
  A2F : 00E7A023;
  A30 : FEC42783;
  A31 : 00178793;
  A32 : FEF42623;
  A33 : FEC42703;
  A34 : 01F00793;
  A35 : FAE7D4E3;
  A36 : 0FF0000F;
  A37 : 00000013;
  A38 : 02C12403;
  A39 : 03010113;
  A3A : 00008067;
  A3B : FF010113;
  A3C : 00812623;
  A3D : 01010413;
  A3E : FFFC07B7;
  A3F : 0007A783;
  A40 : 00078513;
  A41 : 00C12403;
  A42 : 01010113;
  A43 : 00008067;
  A44 : FF010113;
  A45 : 00112623;
  A46 : 00812423;
  A47 : 01010413;
  A48 : FCDFF0EF;
  A49 : 00050793;
  A4A : 00078513;
  A4B : 00C12083;
  A4C : 00812403;
  A4D : 01010113;
  A4E : 00008067;
  A4F : 00050613;
  A50 : 00000513;
  A51 : 0015F693;
  A52 : 00068463;
  A53 : 00C50533;
  A54 : 0015D593;
  A55 : 00161613;
  A56 : FE0596E3;
  A57 : 00008067;
  A58 : 06054063;
  A59 : 0605C663;
  A5A : 00058613;
  A5B : 00050593;
  A5C : FFF00513;
  A5D : 02060C63;
  A5E : 00100693;
  A5F : 00B67A63;
  A60 : 00C05863;
  A61 : 00161613;
  A62 : 00169693;
  A63 : FEB66AE3;
  A64 : 00000513;
  A65 : 00C5E663;
  A66 : 40C585B3;
  A67 : 00D56533;
  A68 : 0016D693;
  A69 : 00165613;
  A6A : FE0696E3;
  A6B : 00008067;
  A6C : 00008293;
  A6D : FB5FF0EF;
  A6E : 00058513;
  A6F : 00028067;
  A70 : 40A00533;
  A71 : 00B04863;
  A72 : 40B005B3;
  A73 : F9DFF06F;
  A74 : 40B005B3;
  A75 : 00008293;
  A76 : F91FF0EF;
  A77 : 40A00533;
  A78 : 00028067;
  A79 : 00008293;
  A7A : 0005CA63;
  A7B : 00054C63;
  A7C : F79FF0EF;
  A7D : 00058513;
  A7E : 00028067;
  A7F : 40B005B3;
  A80 : FE0558E3;
  A81 : 40A00533;
  A82 : F61FF0EF;
  A83 : 40B00533;
  A84 : 00028067;
  A85 : 00050313;
  A86 : 00060E63;
  A87 : 00058383;
  A88 : 00730023;
  A89 : FFF60613;
  A8A : 00130313;
  A8B : 00158593;
  A8C : FE0616E3;
  A8D : 00008067;
  A8E : 00050793;
  A8F : 0007C703;
  A90 : 00178793;
  A91 : FE071CE3;
  A92 : 40A78533;
  A93 : FFF50513;
  A94 : 00008067;
  A95 : 524F454E;
  A96 : 3A323356;
  A97 : 6C654820;
  A98 : 77206F6C;
  A99 : 646C726F;
  A9A : 00000A21;
  A9B : 524F454E;
  A9C : 3A323356;
  A9D : 756F4620;
  A9E : 5320646E;
  A9F : 72204244;
  AA0 : 20746F6F;
  AA1 : 30207461;
  AA2 : 0A782578;
  AA3 : 00000000;
  AA4 : 4F454E0A;
  AA5 : 32335652;
  AA6 : 7250203A;
  AA7 : 20737365;
  AA8 : 20796E61;
  AA9 : 2079656B;
  AAA : 63206F74;
  AAB : 69746E6F;
  AAC : 0A65756E;
  AAD : 00000000;
  AAE : 72657355;
  AAF : 79656B20;
  AB0 : 203A6E69;
  AB1 : 000A6325;
  AB2 : 71000550;
  AB3 : 71000574;
  AB4 : 71000694;
  AB5 : 71000694;
  AB6 : 71000694;
  AB7 : 71000694;
  AB8 : 71000574;
  AB9 : 71000694;
  ABA : 71000694;
  ABB : 71000694;
  ABC : 71000694;
  ABD : 71000694;
  ABE : 71000694;
  ABF : 7100060C;
  AC0 : 71000694;
  AC1 : 71000694;
  AC2 : 71000530;
  AC3 : 71000694;
  AC4 : 710005D4;
  AC5 : 71000694;
  AC6 : 71000694;
  AC7 : 7100060C;
  AC8 : 33323130;
  AC9 : 37363534;
  ACA : 62613938;
  ACB : 66656463;
  ACC : 3C3C0A0A;
  ACD : 4F454E20;
  ACE : 32335652;
  ACF : 6F725020;
  AD0 : 73736563;
  AD1 : 4320726F;
  AD2 : 69666E6F;
  AD3 : 61727567;
  AD4 : 6E6F6974;
  AD5 : 0A3E3E20;
  AD6 : 0000000A;
  AD7 : 73207349;
  AD8 : 6C756D69;
  AD9 : 6F697461;
  ADA : 20203A6E;
  ADB : 20202020;
  ADC : 00000020;
  ADD : 0A736579;
  ADE : 00000000;
  ADF : 000A6F6E;
  AE0 : 20555043;
  AE1 : 65726F63;
  AE2 : 68282073;
  AE3 : 73747261;
  AE4 : 20203A29;
  AE5 : 0A752520;
  AE6 : 00000000;
  AE7 : 636F6C43;
  AE8 : 7073206B;
  AE9 : 3A646565;
  AEA : 20202020;
  AEB : 20202020;
  AEC : 20752520;
  AED : 000A7A48;
  AEE : 632D6E4F;
  AEF : 20706968;
  AF0 : 75626564;
  AF1 : 72656767;
  AF2 : 2020203A;
  AF3 : 00000020;
  AF4 : 62616E65;
  AF5 : 0064656C;
  AF6 : 61202B20;
  AF7 : 65687475;
  AF8 : 6369746E;
  AF9 : 6F697461;
  AFA : 0000006E;
  AFB : 7525202C;
  AFC : 20574820;
  AFD : 67697274;
  AFE : 28726567;
  AFF : 000A2973;
  B00 : 61736964;
  B01 : 64656C62;
  B02 : 0000000A;
  B03 : 74726148;
  B04 : 3A444920;
  B05 : 20202020;
  B06 : 20202020;
  B07 : 20202020;
  B08 : 25783020;
  B09 : 65560A78;
  B0A : 726F646E;
  B0B : 3A444920;
  B0C : 20202020;
  B0D : 20202020;
  B0E : 30202020;
  B0F : 0A782578;
  B10 : 68637241;
  B11 : 63657469;
  B12 : 65727574;
  B13 : 3A444920;
  B14 : 20202020;
  B15 : 25783020;
  B16 : 6D490A78;
  B17 : 6D656C70;
  B18 : 61746E65;
  B19 : 6E6F6974;
  B1A : 3A444920;
  B1B : 30202020;
  B1C : 20782578;
  B1D : 00007628;
  B1E : 00000A29;
  B1F : 68637241;
  B20 : 63657469;
  B21 : 65727574;
  B22 : 2020203A;
  B23 : 20202020;
  B24 : 00000020;
  B25 : 32337672;
  B26 : 74696C2D;
  B27 : 00656C74;
  B28 : 6E6B6E75;
  B29 : 006E776F;
  B2A : 4153490A;
  B2B : 74786520;
  B2C : 69736E65;
  B2D : 3A736E6F;
  B2E : 20202020;
  B2F : 00002020;
  B30 : 6D61615A;
  B31 : 0000206F;
  B32 : 726C615A;
  B33 : 00206373;
  B34 : 2061635A;
  B35 : 00000000;
  B36 : 2062635A;
  B37 : 00000000;
  B38 : 2061625A;
  B39 : 00000000;
  B3A : 2062625A;
  B3B : 00000000;
  B3C : 626B625A;
  B3D : 00000020;
  B3E : 636B625A;
  B3F : 00000020;
  B40 : 786B625A;
  B41 : 00000020;
  B42 : 2073625A;
  B43 : 00000000;
  B44 : 6E69665A;
  B45 : 00002078;
  B46 : 6962695A;
  B47 : 00000020;
  B48 : 6E63695A;
  B49 : 00207274;
  B4A : 6F63695A;
  B4B : 0020646E;
  B4C : 7363695A;
  B4D : 00002072;
  B4E : 6566695A;
  B4F : 6965636E;
  B50 : 00000020;
  B51 : 7068695A;
  B52 : 0000206D;
  B53 : 6F6D695A;
  B54 : 00002070;
  B55 : 206E6B5A;
  B56 : 00000000;
  B57 : 646E6B5A;
  B58 : 00000020;
  B59 : 656E6B5A;
  B5A : 00000020;
  B5B : 686E6B5A;
  B5C : 00000020;
  B5D : 20736B5A;
  B5E : 00000000;
  B5F : 65736B5A;
  B60 : 00002064;
  B61 : 68736B5A;
  B62 : 00000020;
  B63 : 20746B5A;
  B64 : 00000000;
  B65 : 756D6D5A;
  B66 : 0000206C;
  B67 : 78656453;
  B68 : 00002074;
  B69 : 72746453;
  B6A : 00206769;
  B6B : 6E636D53;
  B6C : 6D707274;
  B6D : 00002066;
  B6E : 6D706D53;
  B6F : 00002070;
  B70 : 75666358;
  B71 : 00000020;
  B72 : 7968500A;
  B73 : 4D202E73;
  B74 : 726F6D65;
  B75 : 72502079;
  B76 : 3A2E746F;
  B77 : 00002020;
  B78 : 72207525;
  B79 : 6F696765;
  B7A : 2973286E;
  B7B : 7525202C;
  B7C : 74796220;
  B7D : 67207365;
  B7E : 756E6172;
  B7F : 6972616C;
  B80 : 202C7974;
  B81 : 65646F6D;
  B82 : 003D2073;
  B83 : 46464F20;
  B84 : 00000000;
  B85 : 524F5420;
  B86 : 00000000;
  B87 : 34414E20;
  B88 : 00000000;
  B89 : 50414E20;
  B8A : 0000544F;
  B8B : 656E6F6E;
  B8C : 00000000;
  B8D : 4D50480A;
  B8E : 756F6320;
  B8F : 7265746E;
  B90 : 20203A73;
  B91 : 20202020;
  B92 : 00002020;
  B93 : 63207525;
  B94 : 746E756F;
  B95 : 73287265;
  B96 : 25202C29;
  B97 : 69622075;
  B98 : 29732874;
  B99 : 64697720;
  B9A : 00000065;
  B9B : 6F6F420A;
  B9C : 6F632074;
  B9D : 6769666E;
  B9E : 74617275;
  B9F : 3A6E6F69;
  BA0 : 00002020;
  BA1 : 746F6F62;
  BA2 : 61697620;
  BA3 : 6F6F6220;
  BA4 : 616F6C74;
  BA5 : 20726564;
  BA6 : 0A293028;
  BA7 : 00000000;
  BA8 : 746F6F62;
  BA9 : 6F726620;
  BAA : 7563206D;
  BAB : 6D6F7473;
  BAC : 64646120;
  BAD : 73736572;
  BAE : 29312820;
  BAF : 0000000A;
  BB0 : 746F6F62;
  BB1 : 6F726620;
  BB2 : 7270206D;
  BB3 : 6E692D65;
  BB4 : 61697469;
  BB5 : 657A696C;
  BB6 : 4D492064;
  BB7 : 28204D45;
  BB8 : 000A2932;
  BB9 : 6E6B6E75;
  BBA : 206E776F;
  BBB : 29752528;
  BBC : 0000000A;
  BBD : 65746E49;
  BBE : 6C616E72;
  BBF : 454D4920;
  BC0 : 20203A4D;
  BC1 : 20202020;
  BC2 : 00000020;
  BC3 : 62207525;
  BC4 : 73657479;
  BC5 : 0000000A;
  BC6 : 656E6F6E;
  BC7 : 0000000A;
  BC8 : 65746E49;
  BC9 : 6C616E72;
  BCA : 454D4420;
  BCB : 20203A4D;
  BCC : 20202020;
  BCD : 00000020;
  BCE : 20555043;
  BCF : 61632D49;
  BD0 : 3A656863;
  BD1 : 20202020;
  BD2 : 20202020;
  BD3 : 00000020;
  BD4 : 62207525;
  BD5 : 73657479;
  BD6 : 75252820;
  BD7 : 29752578;
  BD8 : 00000000;
  BD9 : 7562202C;
  BDA : 73747372;
  BDB : 616E6520;
  BDC : 64656C62;
  BDD : 0000000A;
  BDE : 0000000A;
  BDF : 20555043;
  BE0 : 61632D44;
  BE1 : 3A656863;
  BE2 : 20202020;
  BE3 : 20202020;
  BE4 : 00000020;
  BE5 : 2E747845;
  BE6 : 73756220;
  BE7 : 746E6920;
  BE8 : 61667265;
  BE9 : 203A6563;
  BEA : 00000020;
  BEB : 20737542;
  BEC : 656D6974;
  BED : 2074756F;
  BEE : 746E6928;
  BEF : 20203A29;
  BF0 : 20752520;
  BF1 : 6C637963;
  BF2 : 000A7365;
  BF3 : 20737542;
  BF4 : 656D6974;
  BF5 : 2074756F;
  BF6 : 74786528;
  BF7 : 20203A29;
  BF8 : 20752520;
  BF9 : 6C637963;
  BFA : 000A7365;
  BFB : 69726550;
  BFC : 72656870;
  BFD : 3A736C61;
  BFE : 20202020;
  BFF : 20202020;
  C00 : 00000020;
  C01 : 20534643;
  C02 : 00000000;
  C03 : 4E494C43;
  C04 : 00002054;
  C05 : 20414D44;
  C06 : 00000000;
  C07 : 4F495047;
  C08 : 00000020;
  C09 : 4D545047;
  C0A : 00002052;
  C0B : 4C4F454E;
  C0C : 00204445;
  C0D : 57454E4F;
  C0E : 20455249;
  C0F : 00000000;
  C10 : 204D5750;
  C11 : 00000000;
  C12 : 20494453;
  C13 : 00000000;
  C14 : 4E494C53;
  C15 : 0000204B;
  C16 : 20495053;
  C17 : 00000000;
  C18 : 49535953;
  C19 : 204F464E;
  C1A : 00000000;
  C1B : 43415254;
  C1C : 00205245;
  C1D : 474E5254;
  C1E : 00000020;
  C1F : 20445754;
  C20 : 00000000;
  C21 : 20495754;
  C22 : 00000000;
  C23 : 54524155;
  C24 : 00002030;
  C25 : 54524155;
  C26 : 00002031;
  C27 : 20544457;
  C28 : 00000000;
  C29 : 00000A0A;
  C2A : 20656854;
  C2B : 524F454E;
  C2C : 20323356;
  C2D : 43534952;
  C2E : 5020562D;
  C2F : 65636F72;
  C30 : 726F7373;
  C31 : 6967202C;
  C32 : 62756874;
  C33 : 6D6F632E;
  C34 : 6E74732F;
  C35 : 69746C6F;
  C36 : 6E2F676E;
  C37 : 76726F65;
  C38 : 430A3233;
  C39 : 7279706F;
  C3A : 74686769;
  C3B : 29632820;
  C3C : 4F454E20;
  C3D : 32335652;
  C3E : 6E6F6320;
  C3F : 62697274;
  C40 : 726F7475;
  C41 : 430A2E73;
  C42 : 7279706F;
  C43 : 74686769;
  C44 : 29632820;
  C45 : 32303220;
  C46 : 202D2030;
  C47 : 36323032;
  C48 : 7453202C;
  C49 : 61687065;
  C4A : 6F4E206E;
  C4B : 6E69746C;
  C4C : 41202E67;
  C4D : 72206C6C;
  C4E : 74686769;
  C4F : 65722073;
  C50 : 76726573;
  C51 : 0A2E6465;
  C52 : 58445053;
  C53 : 63694C2D;
  C54 : 65736E65;
  C55 : 6564492D;
  C56 : 6669746E;
  C57 : 3A726569;
  C58 : 44534220;
  C59 : 432D332D;
  C5A : 7375616C;
  C5B : 00000A65;
  C5C : 00000000;
  C5D : 00000000;
  C5E : 03000000;
  C5F : 60C7C630;
  C60 : 87F8FC7F;
  C61 : F87FC0C7;
  C62 : FFFC8303;
  C63 : 00C0F0CC;
  C64 : C0CCCC0C;
  C65 : C30F0CC0;
  C66 : D8CC000F;
  C67 : CC0C00C0;
  C68 : 0C01C0C0;
  C69 : 1F8C8303;
  C6A : F8C0CCCF;
  C6B : C0C0CFF8;
  C6C : 030FF806;
  C6D : C6CC1F8F;
  C6E : CC1800C0;
  C6F : 0C186180;
  C70 : 1F8C0303;
  C71 : 00C0C3CC;
  C72 : 330CCC0C;
  C73 : 030F0C60;
  C74 : C187000F;
  C75 : 8C06FC7F;
  C76 : F8FF0C07;
  C77 : FFFCC303;
  C78 : 00000000;
  C79 : 00000000;
  C7A : 03000000;
  C7B : 0000C630;
  C7C : 4453420A;
  C7D : 432D3320;
  C7E : 7375616C;
  C7F : 694C2065;
  C80 : 736E6563;
  C81 : 430A0A65;
  C82 : 7279706F;
  C83 : 74686769;
  C84 : 29632820;
  C85 : 4F454E20;
  C86 : 32335652;
  C87 : 6E6F6320;
  C88 : 62697274;
  C89 : 726F7475;
  C8A : 430A2E73;
  C8B : 7279706F;
  C8C : 74686769;
  C8D : 29632820;
  C8E : 32303220;
  C8F : 202D2030;
  C90 : 36323032;
  C91 : 7453202C;
  C92 : 61687065;
  C93 : 6F4E206E;
  C94 : 6E69746C;
  C95 : 41202E67;
  C96 : 72206C6C;
  C97 : 74686769;
  C98 : 65722073;
  C99 : 76726573;
  C9A : 0A2E6465;
  C9B : 6465520A;
  C9C : 72747369;
  C9D : 74756269;
  C9E : 206E6F69;
  C9F : 20646E61;
  CA0 : 20657375;
  CA1 : 73206E69;
  CA2 : 6372756F;
  CA3 : 6E612065;
  CA4 : 69622064;
  CA5 : 7972616E;
  CA6 : 726F6620;
  CA7 : 202C736D;
  CA8 : 68746977;
  CA9 : 20726F20;
  CAA : 68746977;
  CAB : 2074756F;
  CAC : 69646F6D;
  CAD : 61636966;
  CAE : 6E6F6974;
  CAF : 7261202C;
  CB0 : 65700A65;
  CB1 : 74696D72;
  CB2 : 20646574;
  CB3 : 766F7270;
  CB4 : 64656469;
  CB5 : 61687420;
  CB6 : 68742074;
  CB7 : 6F662065;
  CB8 : 776F6C6C;
  CB9 : 20676E69;
  CBA : 646E6F63;
  CBB : 6F697469;
  CBC : 6120736E;
  CBD : 6D206572;
  CBE : 0A3A7465;
  CBF : 202E310A;
  CC0 : 69646552;
  CC1 : 69727473;
  CC2 : 69747562;
  CC3 : 20736E6F;
  CC4 : 7320666F;
  CC5 : 6372756F;
  CC6 : 6F632065;
  CC7 : 6D206564;
  CC8 : 20747375;
  CC9 : 61746572;
  CCA : 74206E69;
  CCB : 61206568;
  CCC : 65766F62;
  CCD : 706F6320;
  CCE : 67697279;
  CCF : 6E207468;
  CD0 : 6369746F;
  CD1 : 74202C65;
  CD2 : 20736968;
  CD3 : 7473696C;
  CD4 : 0A666F20;
  CD5 : 63202020;
  CD6 : 69646E6F;
  CD7 : 6E6F6974;
  CD8 : 6E612073;
  CD9 : 68742064;
  CDA : 6F662065;
  CDB : 776F6C6C;
  CDC : 20676E69;
  CDD : 63736964;
  CDE : 6D69616C;
  CDF : 0A2E7265;
  CE0 : 202E320A;
  CE1 : 69646552;
  CE2 : 69727473;
  CE3 : 69747562;
  CE4 : 20736E6F;
  CE5 : 62206E69;
  CE6 : 72616E69;
  CE7 : 6F662079;
  CE8 : 6D206D72;
  CE9 : 20747375;
  CEA : 72706572;
  CEB : 6375646F;
  CEC : 68742065;
  CED : 62612065;
  CEE : 2065766F;
  CEF : 79706F63;
  CF0 : 68676972;
  CF1 : 6F6E2074;
  CF2 : 65636974;
  CF3 : 6874202C;
  CF4 : 6C207369;
  CF5 : 20747369;
  CF6 : 200A666F;
  CF7 : 6F632020;
  CF8 : 7469646E;
  CF9 : 736E6F69;
  CFA : 646E6120;
  CFB : 65687420;
  CFC : 6C6F6620;
  CFD : 69776F6C;
  CFE : 6420676E;
  CFF : 6C637369;
  D00 : 656D6961;
  D01 : 6E692072;
  D02 : 65687420;
  D03 : 636F6420;
  D04 : 6E656D75;
  D05 : 69746174;
  D06 : 61206E6F;
  D07 : 6F2F646E;
  D08 : 746F2072;
  D09 : 20726568;
  D0A : 6574616D;
  D0B : 6C616972;
  D0C : 20200A73;
  D0D : 6F727020;
  D0E : 65646976;
  D0F : 69772064;
  D10 : 74206874;
  D11 : 64206568;
  D12 : 72747369;
  D13 : 74756269;
  D14 : 2E6E6F69;
  D15 : 2E330A0A;
  D16 : 69654E20;
  D17 : 72656874;
  D18 : 65687420;
  D19 : 6D616E20;
  D1A : 666F2065;
  D1B : 65687420;
  D1C : 706F6320;
  D1D : 67697279;
  D1E : 68207468;
  D1F : 65646C6F;
  D20 : 6F6E2072;
  D21 : 68742072;
  D22 : 616E2065;
  D23 : 2073656D;
  D24 : 6920666F;
  D25 : 63207374;
  D26 : 72746E6F;
  D27 : 74756269;
  D28 : 2073726F;
  D29 : 2079616D;
  D2A : 75206562;
  D2B : 20646573;
  D2C : 200A6F74;
  D2D : 6E652020;
  D2E : 73726F64;
  D2F : 726F2065;
  D30 : 6F727020;
  D31 : 65746F6D;
  D32 : 6F727020;
  D33 : 74637564;
  D34 : 65642073;
  D35 : 65766972;
  D36 : 72662064;
  D37 : 74206D6F;
  D38 : 20736968;
  D39 : 74666F73;
  D3A : 65726177;
  D3B : 74697720;
  D3C : 74756F68;
  D3D : 65707320;
  D3E : 69666963;
  D3F : 72702063;
  D40 : 20726F69;
  D41 : 74697277;
  D42 : 0A6E6574;
  D43 : 70202020;
  D44 : 696D7265;
  D45 : 6F697373;
  D46 : 0A0A2E6E;
  D47 : 53494854;
  D48 : 464F5320;
  D49 : 52415754;
  D4A : 53492045;
  D4B : 4F525020;
  D4C : 45444956;
  D4D : 59422044;
  D4E : 45485420;
  D4F : 504F4320;
  D50 : 47495259;
  D51 : 48205448;
  D52 : 45444C4F;
  D53 : 41205352;
  D54 : 4320444E;
  D55 : 52544E4F;
  D56 : 54554249;
  D57 : 2053524F;
  D58 : 20534122;
  D59 : 20225349;
  D5A : 20444E41;
  D5B : 20594E41;
  D5C : 52505845;
  D5D : 0A535345;
  D5E : 4920524F;
  D5F : 494C504D;
  D60 : 57204445;
  D61 : 41525241;
  D62 : 4549544E;
  D63 : 49202C53;
  D64 : 554C434E;
  D65 : 474E4944;
  D66 : 5542202C;
  D67 : 4F4E2054;
  D68 : 494C2054;
  D69 : 4554494D;
  D6A : 4F542044;
  D6B : 4854202C;
  D6C : 4D492045;
  D6D : 45494C50;
  D6E : 41572044;
  D6F : 4E415252;
  D70 : 53454954;
  D71 : 0A464F20;
  D72 : 4352454D;
  D73 : 544E4148;
  D74 : 4C494241;
  D75 : 20595449;
  D76 : 20444E41;
  D77 : 4E544946;
  D78 : 20535345;
  D79 : 20524F46;
  D7A : 41502041;
  D7B : 43495452;
  D7C : 52414C55;
  D7D : 52555020;
  D7E : 45534F50;
  D7F : 45524120;
  D80 : 53494420;
  D81 : 49414C43;
  D82 : 2E44454D;
  D83 : 204E4920;
  D84 : 45204F4E;
  D85 : 544E4556;
  D86 : 41485320;
  D87 : 54204C4C;
  D88 : 430A4548;
  D89 : 5259504F;
  D8A : 54484749;
  D8B : 4C4F4820;
  D8C : 20524544;
  D8D : 4320524F;
  D8E : 52544E4F;
  D8F : 54554249;
  D90 : 2053524F;
  D91 : 4C204542;
  D92 : 4C424149;
  D93 : 4F462045;
  D94 : 4E412052;
  D95 : 49442059;
  D96 : 54434552;
  D97 : 4E49202C;
  D98 : 45524944;
  D99 : 202C5443;
  D9A : 49434E49;
  D9B : 544E4544;
  D9C : 202C4C41;
  D9D : 43455053;
  D9E : 2C4C4149;
  D9F : 4558450A;
  DA0 : 414C504D;
  DA1 : 202C5952;
  DA2 : 4320524F;
  DA3 : 45534E4F;
  DA4 : 4E455551;
  DA5 : 4C414954;
  DA6 : 4D414420;
  DA7 : 53454741;
  DA8 : 4E492820;
  DA9 : 44554C43;
  DAA : 2C474E49;
  DAB : 54554220;
  DAC : 544F4E20;
  DAD : 4D494C20;
  DAE : 44455449;
  DAF : 2C4F5420;
  DB0 : 4F525020;
  DB1 : 45525543;
  DB2 : 544E454D;
  DB3 : 20464F20;
  DB4 : 53425553;
  DB5 : 55544954;
  DB6 : 470A4554;
  DB7 : 53444F4F;
  DB8 : 20524F20;
  DB9 : 56524553;
  DBA : 53454349;
  DBB : 4F4C203B;
  DBC : 4F205353;
  DBD : 53552046;
  DBE : 44202C45;
  DBF : 2C415441;
  DC0 : 20524F20;
  DC1 : 464F5250;
  DC2 : 3B535449;
  DC3 : 20524F20;
  DC4 : 49535542;
  DC5 : 5353454E;
  DC6 : 544E4920;
  DC7 : 55525245;
  DC8 : 4F495450;
  DC9 : 4820294E;
  DCA : 5645574F;
  DCB : 43205245;
  DCC : 45535541;
  DCD : 4E410A44;
  DCE : 4E4F2044;
  DCF : 594E4120;
  DD0 : 45485420;
  DD1 : 2059524F;
  DD2 : 4C20464F;
  DD3 : 49424149;
  DD4 : 5954494C;
  DD5 : 4857202C;
  DD6 : 45485445;
  DD7 : 4E492052;
  DD8 : 4E4F4320;
  DD9 : 43415254;
  DDA : 53202C54;
  DDB : 43495254;
  DDC : 494C2054;
  DDD : 4C494241;
  DDE : 2C595449;
  DDF : 20524F20;
  DE0 : 54524F54;
  DE1 : 4E492820;
  DE2 : 44554C43;
  DE3 : 0A474E49;
  DE4 : 4C47454E;
  DE5 : 4E454749;
  DE6 : 4F204543;
  DE7 : 544F2052;
  DE8 : 57524548;
  DE9 : 29455349;
  DEA : 49524120;
  DEB : 474E4953;
  DEC : 204E4920;
  DED : 20594E41;
  DEE : 20594157;
  DEF : 2054554F;
  DF0 : 5420464F;
  DF1 : 55204548;
  DF2 : 4F204553;
  DF3 : 48542046;
  DF4 : 53205349;
  DF5 : 5754464F;
  DF6 : 2C455241;
  DF7 : 45564520;
  DF8 : 4649204E;
  DF9 : 56444120;
  DFA : 44455349;
  DFB : 20464F0A;
  DFC : 20454854;
  DFD : 53534F50;
  DFE : 4C494249;
  DFF : 20595449;
  E00 : 5320464F;
  E01 : 20484355;
  E02 : 414D4144;
  E03 : 0A2E4547;
  E04 : 4450530A;
  E05 : 694C2D58;
  E06 : 736E6563;
  E07 : 64492D65;
  E08 : 69746E65;
  E09 : 72656966;
  E0A : 5342203A;
  E0B : 2D332D44;
  E0C : 75616C43;
  E0D : 0A0A6573;
  E0E : 00000000;
  E0F : 33323130;
  E10 : 37363534;
  E11 : 42413938;
  E12 : 46454443;
  E13 : 00000000;
  E14 : 3B315B1B;
  E15 : 3C6D3133;
  E16 : 524F454E;
  E17 : 2D323356;
  E18 : 2D455452;
  E19 : 494E4150;
  E1A : 00203E43;
  E1B : 7570635B;
  E1C : 00007C31;
  E1D : 7570635B;
  E1E : 00007C30;
  E1F : 00205D4D;
  E20 : 00205D55;
  E21 : 74736E49;
  E22 : 74637572;
  E23 : 206E6F69;
  E24 : 65636361;
  E25 : 66207373;
  E26 : 746C7561;
  E27 : 00000000;
  E28 : 656C6C49;
  E29 : 206C6167;
  E2A : 74736E69;
  E2B : 74637572;
  E2C : 006E6F69;
  E2D : 74736E49;
  E2E : 74637572;
  E2F : 206E6F69;
  E30 : 72646461;
  E31 : 20737365;
  E32 : 6173696D;
  E33 : 6E67696C;
  E34 : 00006465;
  E35 : 69766E45;
  E36 : 6D6E6F72;
  E37 : 20746E65;
  E38 : 61657262;
  E39 : 696F706B;
  E3A : 0000746E;
  E3B : 64616F4C;
  E3C : 64646120;
  E3D : 73736572;
  E3E : 73696D20;
  E3F : 67696C61;
  E40 : 0064656E;
  E41 : 64616F4C;
  E42 : 63636120;
  E43 : 20737365;
  E44 : 6C756166;
  E45 : 00000074;
  E46 : 726F7453;
  E47 : 64612065;
  E48 : 73657264;
  E49 : 696D2073;
  E4A : 696C6173;
  E4B : 64656E67;
  E4C : 00000000;
  E4D : 726F7453;
  E4E : 63612065;
  E4F : 73736563;
  E50 : 75616620;
  E51 : 0000746C;
  E52 : 69766E45;
  E53 : 6D6E6F72;
  E54 : 20746E65;
  E55 : 6C6C6163;
  E56 : 6F726620;
  E57 : 2D55206D;
  E58 : 65646F6D;
  E59 : 00000000;
  E5A : 69766E45;
  E5B : 6D6E6F72;
  E5C : 20746E65;
  E5D : 6C6C6163;
  E5E : 6F726620;
  E5F : 2D4D206D;
  E60 : 65646F6D;
  E61 : 00000000;
  E62 : 6863614D;
  E63 : 20656E69;
  E64 : 74666F73;
  E65 : 65726177;
  E66 : 51524920;
  E67 : 00000000;
  E68 : 6863614D;
  E69 : 20656E69;
  E6A : 656D6974;
  E6B : 52492072;
  E6C : 00000051;
  E6D : 6863614D;
  E6E : 20656E69;
  E6F : 65747865;
  E70 : 6C616E72;
  E71 : 51524920;
  E72 : 00000000;
  E73 : 51524946;
  E74 : 2820302D;
  E75 : 29445754;
  E76 : 00000000;
  E77 : 51524946;
  E78 : 2820312D;
  E79 : 29534643;
  E7A : 00000000;
  E7B : 51524946;
  E7C : 2820322D;
  E7D : 54524155;
  E7E : 00002930;
  E7F : 51524946;
  E80 : 2820332D;
  E81 : 54524155;
  E82 : 00002931;
  E83 : 51524946;
  E84 : 2820342D;
  E85 : 65736572;
  E86 : 64657672;
  E87 : 00000029;
  E88 : 51524946;
  E89 : 2820352D;
  E8A : 43415254;
  E8B : 00295245;
  E8C : 51524946;
  E8D : 2820362D;
  E8E : 29495053;
  E8F : 00000000;
  E90 : 51524946;
  E91 : 2820372D;
  E92 : 29495754;
  E93 : 00000000;
  E94 : 51524946;
  E95 : 2820382D;
  E96 : 4F495047;
  E97 : 00000029;
  E98 : 51524946;
  E99 : 2820392D;
  E9A : 4C4F454E;
  E9B : 00294445;
  E9C : 51524946;
  E9D : 2030312D;
  E9E : 414D4428;
  E9F : 00000029;
  EA0 : 51524946;
  EA1 : 2031312D;
  EA2 : 49445328;
  EA3 : 00000029;
  EA4 : 51524946;
  EA5 : 2032312D;
  EA6 : 54504728;
  EA7 : 0029524D;
  EA8 : 51524946;
  EA9 : 2033312D;
  EAA : 454E4F28;
  EAB : 45524957;
  EAC : 00000029;
  EAD : 51524946;
  EAE : 2034312D;
  EAF : 494C5328;
  EB0 : 00294B4E;
  EB1 : 51524946;
  EB2 : 2035312D;
  EB3 : 4E525428;
  EB4 : 00002947;
  EB5 : 6E6B6E55;
  EB6 : 206E776F;
  EB7 : 70617274;
  EB8 : 75616320;
  EB9 : 00206573;
  EBA : 50454D20;
  EBB : 00003D43;
  EBC : 49544D20;
  EBD : 3D54534E;
  EBE : 00000000;
  EBF : 56544D20;
  EC0 : 003D4C41;
  EC1 : 73694420;
  EC2 : 696C6261;
  EC3 : 4920676E;
  EC4 : 73205152;
  EC5 : 6372756F;
  EC6 : 00000065;
  EC7 : 54414620;
  EC8 : 20214C41;
  EC9 : 746C6148;
  ECA : 20676E69;
  ECB : 20555043;
  ECC : 454E2F3C;
  ECD : 3356524F;
  ECE : 54522D32;
  ECF : 41502D45;
  ED0 : 3E43494E;
  ED1 : 6D305B1B;
  ED2 : 0000000A;
  ED3 : 4E2F3C20;
  ED4 : 56524F45;
  ED5 : 522D3233;
  ED6 : 502D4554;
  ED7 : 43494E41;
  ED8 : 5B1B0A3E;
  ED9 : 00006D30;
  EDA : 71002488;
  EDB : 710025B8;
  EDC : 710025B8;
  EDD : 710025B8;
  EDE : 71002498;
  EDF : 710025B8;
  EE0 : 710025B8;
  EE1 : 710025B8;
  EE2 : 710024A8;
  EE3 : 710025B8;
  EE4 : 710025B8;
  EE5 : 710025B8;
  EE6 : 710025B8;
  EE7 : 710024B8;
  EE8 : 710024C8;
  EE9 : 710024D8;
  EEA : 710024E8;
  EEB : 710024F8;
  EEC : 71002508;
  EED : 71002518;
  EEE : 71002528;
  EEF : 71002538;
  EF0 : 71002548;
  EF1 : 71002558;
  EF2 : 71002568;
  EF3 : 71002578;
  EF4 : 71002588;
  EF5 : 71002598;
  EF6 : 710025A8;
  EF7 : 71002400;
  EF8 : 710023D8;
  EF9 : 710023F0;
  EFA : 71002418;
  EFB : 71002428;
  EFC : 71002438;
  EFD : 71002448;
  EFE : 71002458;
  EFF : 71002468;
  F00 : 710025B8;
  F01 : 710025B8;
  F02 : 71002478;
  F03 : 20202000;
  F04 : 20202020;
  F05 : 28282020;
  F06 : 20282828;
  F07 : 20202020;
  F08 : 20202020;
  F09 : 20202020;
  F0A : 20202020;
  F0B : 10108820;
  F0C : 10101010;
  F0D : 10101010;
  F0E : 10101010;
  F0F : 04040410;
  F10 : 04040404;
  F11 : 10040404;
  F12 : 10101010;
  F13 : 41411010;
  F14 : 41414141;
  F15 : 01010101;
  F16 : 01010101;
  F17 : 01010101;
  F18 : 01010101;
  F19 : 01010101;
  F1A : 10101010;
  F1B : 42421010;
  F1C : 42424242;
  F1D : 02020202;
  F1E : 02020202;
  F1F : 02020202;
  F20 : 02020202;
  F21 : 02020202;
  F22 : 10101010;
  F23 : 00000020;
  F24 : 00000000;
  F25 : 00000000;
  F26 : 00000000;
  F27 : 00000000;
  F28 : 00000000;
  F29 : 00000000;
  F2A : 00000000;
  F2B : 00000000;
  F2C : 00000000;
  F2D : 00000000;
  F2E : 00000000;
  F2F : 00000000;
  F30 : 00000000;
  F31 : 00000000;
  F32 : 00000000;
  F33 : 00000000;
  F34 : 00000000;
  F35 : 00000000;
  F36 : 00000000;
  F37 : 00000000;
  F38 : 00000000;
  F39 : 00000000;
  F3A : 00000000;
  F3B : 00000000;
  F3C : 00000000;
  F3D : 00000000;
  F3E : 00000000;
  F3F : 00000000;
  F40 : 00000000;
  F41 : 00000000;
  F42 : 00000000;
  F43 : 00000000;
END;
